
**** 03/18/22 20:36:36 ******* PSpice Lite (March 2016) ******* ID# 10813 ****

 ** Profile: "SCHEMATIC1-tbg"  [ D:\Practicas\E_General\Termometro_Final-PSpiceFiles\SCHEMATIC1\tbg.sim ] 


 ****     CIRCUIT DESCRIPTION


******************************************************************************




** Creating circuit file "tbg.cir" 
** WARNING: THIS AUTOMATICALLY GENERATED FILE MAY BE OVERWRITTEN BY SUBSEQUENT SIMULATIONS

*Libraries: 
* Profile Libraries :
* Local Libraries :
* From [PSPICE NETLIST] section of C:\SPB_DATA\cdssetup\OrCAD_PSpice\17.2.0\PSpice.ini file:
.lib "nomd.lib" 

*Analysis directives: 
.TRAN  0 1000ns 0 
.STEP LIN TEMP -70 30 0.1 
.OPTIONS ADVCONV
.PROBE64 V(alias(*)) I(alias(*)) W(alias(*)) D(alias(*)) NOISE(alias(*)) 
.INC "..\SCHEMATIC1.net" 



**** INCLUDING SCHEMATIC1.net ****
* source TERMOMETRO_FINAL
V_V2         VS- 0 5
R_R1         N05022 VC+  180K TC=0,0 
V_V1         VC+ 0 5
X_D1         0 N05026 LM385 
R_R2         N05026 N05022  8.2K TC=0,0 

**** RESUMING tbg.cir ****
.END

**** 03/18/22 20:36:36 ******* PSpice Lite (March 2016) ******* ID# 10813 ****

 ** Profile: "SCHEMATIC1-tbg"  [ D:\Practicas\E_General\Termometro_Final-PSpiceFiles\SCHEMATIC1\tbg.sim ] 


 ****     Diode MODEL PARAMETERS


******************************************************************************




               X_D1.DF         
          IS   39.120000E-15 
           N     .9983       
          RS   12.18         


**** 03/18/22 20:36:36 ******* PSpice Lite (March 2016) ******* ID# 10813 ****

 ** Profile: "SCHEMATIC1-tbg"  [ D:\Practicas\E_General\Termometro_Final-PSpiceFiles\SCHEMATIC1\tbg.sim ] 


 ****     INITIAL TRANSIENT SOLUTION       TEMPERATURE =  -70.000 DEG C


******************************************************************************



 NODE   VOLTAGE     NODE   VOLTAGE     NODE   VOLTAGE     NODE   VOLTAGE


(  VC+)    5.0000  (  VS-)    5.0000  (N05022)    1.3949 (N05026)    1.2306     

(X_D1.1) 1.601E-06 (X_D1.2)    -.0022 (X_D1.3)    1.2328 




    VOLTAGE SOURCE CURRENTS
    NAME         CURRENT

    V_V2         0.000E+00
    V_V1        -2.003E-05

    TOTAL POWER DISSIPATION   1.00E-04  WATTS


**** 03/18/22 20:36:36 ******* PSpice Lite (March 2016) ******* ID# 10813 ****

 ** Profile: "SCHEMATIC1-tbg"  [ D:\Practicas\E_General\Termometro_Final-PSpiceFiles\SCHEMATIC1\tbg.sim ] 


 ****     INITIAL TRANSIENT SOLUTION       TEMPERATURE =  -69.900 DEG C


******************************************************************************



 NODE   VOLTAGE     NODE   VOLTAGE     NODE   VOLTAGE     NODE   VOLTAGE


(  VC+)    5.0000  (  VS-)    5.0000  (N05022)    1.3949 (N05026)    1.2306     

(X_D1.1) 1.601E-06 (X_D1.2)    -.0022 (X_D1.3)    1.2328 




    VOLTAGE SOURCE CURRENTS
    NAME         CURRENT

    V_V2         0.000E+00
    V_V1        -2.003E-05

    TOTAL POWER DISSIPATION   1.00E-04  WATTS


**** 03/18/22 20:36:36 ******* PSpice Lite (March 2016) ******* ID# 10813 ****

 ** Profile: "SCHEMATIC1-tbg"  [ D:\Practicas\E_General\Termometro_Final-PSpiceFiles\SCHEMATIC1\tbg.sim ] 


 ****     INITIAL TRANSIENT SOLUTION       TEMPERATURE =  -69.800 DEG C


******************************************************************************



 NODE   VOLTAGE     NODE   VOLTAGE     NODE   VOLTAGE     NODE   VOLTAGE


(  VC+)    5.0000  (  VS-)    5.0000  (N05022)    1.3949 (N05026)    1.2307     

(X_D1.1) 1.601E-06 (X_D1.2)    -.0022 (X_D1.3)    1.2328 




    VOLTAGE SOURCE CURRENTS
    NAME         CURRENT

    V_V2         0.000E+00
    V_V1        -2.003E-05

    TOTAL POWER DISSIPATION   1.00E-04  WATTS


**** 03/18/22 20:36:36 ******* PSpice Lite (March 2016) ******* ID# 10813 ****

 ** Profile: "SCHEMATIC1-tbg"  [ D:\Practicas\E_General\Termometro_Final-PSpiceFiles\SCHEMATIC1\tbg.sim ] 


 ****     INITIAL TRANSIENT SOLUTION       TEMPERATURE =  -69.700 DEG C


******************************************************************************



 NODE   VOLTAGE     NODE   VOLTAGE     NODE   VOLTAGE     NODE   VOLTAGE


(  VC+)    5.0000  (  VS-)    5.0000  (N05022)    1.3949 (N05026)    1.2307     

(X_D1.1) 1.601E-06 (X_D1.2)    -.0022 (X_D1.3)    1.2329 




    VOLTAGE SOURCE CURRENTS
    NAME         CURRENT

    V_V2         0.000E+00
    V_V1        -2.003E-05

    TOTAL POWER DISSIPATION   1.00E-04  WATTS


**** 03/18/22 20:36:36 ******* PSpice Lite (March 2016) ******* ID# 10813 ****

 ** Profile: "SCHEMATIC1-tbg"  [ D:\Practicas\E_General\Termometro_Final-PSpiceFiles\SCHEMATIC1\tbg.sim ] 


 ****     INITIAL TRANSIENT SOLUTION       TEMPERATURE =  -69.600 DEG C


******************************************************************************



 NODE   VOLTAGE     NODE   VOLTAGE     NODE   VOLTAGE     NODE   VOLTAGE


(  VC+)    5.0000  (  VS-)    5.0000  (N05022)    1.3949 (N05026)    1.2307     

(X_D1.1) 1.601E-06 (X_D1.2)    -.0022 (X_D1.3)    1.2329 




    VOLTAGE SOURCE CURRENTS
    NAME         CURRENT

    V_V2         0.000E+00
    V_V1        -2.003E-05

    TOTAL POWER DISSIPATION   1.00E-04  WATTS


**** 03/18/22 20:36:36 ******* PSpice Lite (March 2016) ******* ID# 10813 ****

 ** Profile: "SCHEMATIC1-tbg"  [ D:\Practicas\E_General\Termometro_Final-PSpiceFiles\SCHEMATIC1\tbg.sim ] 


 ****     INITIAL TRANSIENT SOLUTION       TEMPERATURE =  -69.500 DEG C


******************************************************************************



 NODE   VOLTAGE     NODE   VOLTAGE     NODE   VOLTAGE     NODE   VOLTAGE


(  VC+)    5.0000  (  VS-)    5.0000  (N05022)    1.3949 (N05026)    1.2307     

(X_D1.1) 1.601E-06 (X_D1.2)    -.0022 (X_D1.3)    1.2329 




    VOLTAGE SOURCE CURRENTS
    NAME         CURRENT

    V_V2         0.000E+00
    V_V1        -2.003E-05

    TOTAL POWER DISSIPATION   1.00E-04  WATTS


**** 03/18/22 20:36:36 ******* PSpice Lite (March 2016) ******* ID# 10813 ****

 ** Profile: "SCHEMATIC1-tbg"  [ D:\Practicas\E_General\Termometro_Final-PSpiceFiles\SCHEMATIC1\tbg.sim ] 


 ****     INITIAL TRANSIENT SOLUTION       TEMPERATURE =  -69.400 DEG C


******************************************************************************



 NODE   VOLTAGE     NODE   VOLTAGE     NODE   VOLTAGE     NODE   VOLTAGE


(  VC+)    5.0000  (  VS-)    5.0000  (N05022)    1.3949 (N05026)    1.2307     

(X_D1.1) 1.601E-06 (X_D1.2)    -.0022 (X_D1.3)    1.2329 




    VOLTAGE SOURCE CURRENTS
    NAME         CURRENT

    V_V2         0.000E+00
    V_V1        -2.003E-05

    TOTAL POWER DISSIPATION   1.00E-04  WATTS


**** 03/18/22 20:36:36 ******* PSpice Lite (March 2016) ******* ID# 10813 ****

 ** Profile: "SCHEMATIC1-tbg"  [ D:\Practicas\E_General\Termometro_Final-PSpiceFiles\SCHEMATIC1\tbg.sim ] 


 ****     INITIAL TRANSIENT SOLUTION       TEMPERATURE =  -69.300 DEG C


******************************************************************************



 NODE   VOLTAGE     NODE   VOLTAGE     NODE   VOLTAGE     NODE   VOLTAGE


(  VC+)    5.0000  (  VS-)    5.0000  (N05022)    1.3949 (N05026)    1.2307     

(X_D1.1) 1.601E-06 (X_D1.2)    -.0022 (X_D1.3)    1.2329 




    VOLTAGE SOURCE CURRENTS
    NAME         CURRENT

    V_V2         0.000E+00
    V_V1        -2.003E-05

    TOTAL POWER DISSIPATION   1.00E-04  WATTS


**** 03/18/22 20:36:36 ******* PSpice Lite (March 2016) ******* ID# 10813 ****

 ** Profile: "SCHEMATIC1-tbg"  [ D:\Practicas\E_General\Termometro_Final-PSpiceFiles\SCHEMATIC1\tbg.sim ] 


 ****     INITIAL TRANSIENT SOLUTION       TEMPERATURE =  -69.200 DEG C


******************************************************************************



 NODE   VOLTAGE     NODE   VOLTAGE     NODE   VOLTAGE     NODE   VOLTAGE


(  VC+)    5.0000  (  VS-)    5.0000  (N05022)    1.3949 (N05026)    1.2307     

(X_D1.1) 1.601E-06 (X_D1.2)    -.0022 (X_D1.3)    1.2329 




    VOLTAGE SOURCE CURRENTS
    NAME         CURRENT

    V_V2         0.000E+00
    V_V1        -2.003E-05

    TOTAL POWER DISSIPATION   1.00E-04  WATTS


**** 03/18/22 20:36:36 ******* PSpice Lite (March 2016) ******* ID# 10813 ****

 ** Profile: "SCHEMATIC1-tbg"  [ D:\Practicas\E_General\Termometro_Final-PSpiceFiles\SCHEMATIC1\tbg.sim ] 


 ****     INITIAL TRANSIENT SOLUTION       TEMPERATURE =  -69.100 DEG C


******************************************************************************



 NODE   VOLTAGE     NODE   VOLTAGE     NODE   VOLTAGE     NODE   VOLTAGE


(  VC+)    5.0000  (  VS-)    5.0000  (N05022)    1.3949 (N05026)    1.2307     

(X_D1.1) 1.601E-06 (X_D1.2)    -.0022 (X_D1.3)    1.2329 




    VOLTAGE SOURCE CURRENTS
    NAME         CURRENT

    V_V2         0.000E+00
    V_V1        -2.003E-05

    TOTAL POWER DISSIPATION   1.00E-04  WATTS


**** 03/18/22 20:36:36 ******* PSpice Lite (March 2016) ******* ID# 10813 ****

 ** Profile: "SCHEMATIC1-tbg"  [ D:\Practicas\E_General\Termometro_Final-PSpiceFiles\SCHEMATIC1\tbg.sim ] 


 ****     INITIAL TRANSIENT SOLUTION       TEMPERATURE =  -69.000 DEG C


******************************************************************************



 NODE   VOLTAGE     NODE   VOLTAGE     NODE   VOLTAGE     NODE   VOLTAGE


(  VC+)    5.0000  (  VS-)    5.0000  (N05022)    1.3950 (N05026)    1.2307     

(X_D1.1) 1.601E-06 (X_D1.2)    -.0022 (X_D1.3)    1.2329 




    VOLTAGE SOURCE CURRENTS
    NAME         CURRENT

    V_V2         0.000E+00
    V_V1        -2.003E-05

    TOTAL POWER DISSIPATION   1.00E-04  WATTS


**** 03/18/22 20:36:36 ******* PSpice Lite (March 2016) ******* ID# 10813 ****

 ** Profile: "SCHEMATIC1-tbg"  [ D:\Practicas\E_General\Termometro_Final-PSpiceFiles\SCHEMATIC1\tbg.sim ] 


 ****     INITIAL TRANSIENT SOLUTION       TEMPERATURE =  -68.900 DEG C


******************************************************************************



 NODE   VOLTAGE     NODE   VOLTAGE     NODE   VOLTAGE     NODE   VOLTAGE


(  VC+)    5.0000  (  VS-)    5.0000  (N05022)    1.3950 (N05026)    1.2307     

(X_D1.1) 1.601E-06 (X_D1.2)    -.0022 (X_D1.3)    1.2329 




    VOLTAGE SOURCE CURRENTS
    NAME         CURRENT

    V_V2         0.000E+00
    V_V1        -2.003E-05

    TOTAL POWER DISSIPATION   1.00E-04  WATTS


**** 03/18/22 20:36:36 ******* PSpice Lite (March 2016) ******* ID# 10813 ****

 ** Profile: "SCHEMATIC1-tbg"  [ D:\Practicas\E_General\Termometro_Final-PSpiceFiles\SCHEMATIC1\tbg.sim ] 


 ****     INITIAL TRANSIENT SOLUTION       TEMPERATURE =  -68.800 DEG C


******************************************************************************



 NODE   VOLTAGE     NODE   VOLTAGE     NODE   VOLTAGE     NODE   VOLTAGE


(  VC+)    5.0000  (  VS-)    5.0000  (N05022)    1.3950 (N05026)    1.2307     

(X_D1.1) 1.601E-06 (X_D1.2)    -.0022 (X_D1.3)    1.2329 




    VOLTAGE SOURCE CURRENTS
    NAME         CURRENT

    V_V2         0.000E+00
    V_V1        -2.003E-05

    TOTAL POWER DISSIPATION   1.00E-04  WATTS


**** 03/18/22 20:36:36 ******* PSpice Lite (March 2016) ******* ID# 10813 ****

 ** Profile: "SCHEMATIC1-tbg"  [ D:\Practicas\E_General\Termometro_Final-PSpiceFiles\SCHEMATIC1\tbg.sim ] 


 ****     INITIAL TRANSIENT SOLUTION       TEMPERATURE =  -68.700 DEG C


******************************************************************************



 NODE   VOLTAGE     NODE   VOLTAGE     NODE   VOLTAGE     NODE   VOLTAGE


(  VC+)    5.0000  (  VS-)    5.0000  (N05022)    1.3950 (N05026)    1.2307     

(X_D1.1) 1.601E-06 (X_D1.2)    -.0022 (X_D1.3)    1.2329 




    VOLTAGE SOURCE CURRENTS
    NAME         CURRENT

    V_V2         0.000E+00
    V_V1        -2.003E-05

    TOTAL POWER DISSIPATION   1.00E-04  WATTS


**** 03/18/22 20:36:36 ******* PSpice Lite (March 2016) ******* ID# 10813 ****

 ** Profile: "SCHEMATIC1-tbg"  [ D:\Practicas\E_General\Termometro_Final-PSpiceFiles\SCHEMATIC1\tbg.sim ] 


 ****     INITIAL TRANSIENT SOLUTION       TEMPERATURE =  -68.600 DEG C


******************************************************************************



 NODE   VOLTAGE     NODE   VOLTAGE     NODE   VOLTAGE     NODE   VOLTAGE


(  VC+)    5.0000  (  VS-)    5.0000  (N05022)    1.3950 (N05026)    1.2308     

(X_D1.1) 1.601E-06 (X_D1.2)    -.0022 (X_D1.3)    1.2329 




    VOLTAGE SOURCE CURRENTS
    NAME         CURRENT

    V_V2         0.000E+00
    V_V1        -2.003E-05

    TOTAL POWER DISSIPATION   1.00E-04  WATTS


**** 03/18/22 20:36:36 ******* PSpice Lite (March 2016) ******* ID# 10813 ****

 ** Profile: "SCHEMATIC1-tbg"  [ D:\Practicas\E_General\Termometro_Final-PSpiceFiles\SCHEMATIC1\tbg.sim ] 


 ****     INITIAL TRANSIENT SOLUTION       TEMPERATURE =  -68.500 DEG C


******************************************************************************



 NODE   VOLTAGE     NODE   VOLTAGE     NODE   VOLTAGE     NODE   VOLTAGE


(  VC+)    5.0000  (  VS-)    5.0000  (N05022)    1.3950 (N05026)    1.2308     

(X_D1.1) 1.601E-06 (X_D1.2)    -.0022 (X_D1.3)    1.2330 




    VOLTAGE SOURCE CURRENTS
    NAME         CURRENT

    V_V2         0.000E+00
    V_V1        -2.003E-05

    TOTAL POWER DISSIPATION   1.00E-04  WATTS


**** 03/18/22 20:36:36 ******* PSpice Lite (March 2016) ******* ID# 10813 ****

 ** Profile: "SCHEMATIC1-tbg"  [ D:\Practicas\E_General\Termometro_Final-PSpiceFiles\SCHEMATIC1\tbg.sim ] 


 ****     INITIAL TRANSIENT SOLUTION       TEMPERATURE =  -68.400 DEG C


******************************************************************************



 NODE   VOLTAGE     NODE   VOLTAGE     NODE   VOLTAGE     NODE   VOLTAGE


(  VC+)    5.0000  (  VS-)    5.0000  (N05022)    1.3950 (N05026)    1.2308     

(X_D1.1) 1.601E-06 (X_D1.2)    -.0022 (X_D1.3)    1.2330 




    VOLTAGE SOURCE CURRENTS
    NAME         CURRENT

    V_V2         0.000E+00
    V_V1        -2.003E-05

    TOTAL POWER DISSIPATION   1.00E-04  WATTS


**** 03/18/22 20:36:36 ******* PSpice Lite (March 2016) ******* ID# 10813 ****

 ** Profile: "SCHEMATIC1-tbg"  [ D:\Practicas\E_General\Termometro_Final-PSpiceFiles\SCHEMATIC1\tbg.sim ] 


 ****     INITIAL TRANSIENT SOLUTION       TEMPERATURE =  -68.300 DEG C


******************************************************************************



 NODE   VOLTAGE     NODE   VOLTAGE     NODE   VOLTAGE     NODE   VOLTAGE


(  VC+)    5.0000  (  VS-)    5.0000  (N05022)    1.3950 (N05026)    1.2308     

(X_D1.1) 1.601E-06 (X_D1.2)    -.0022 (X_D1.3)    1.2330 




    VOLTAGE SOURCE CURRENTS
    NAME         CURRENT

    V_V2         0.000E+00
    V_V1        -2.003E-05

    TOTAL POWER DISSIPATION   1.00E-04  WATTS


**** 03/18/22 20:36:36 ******* PSpice Lite (March 2016) ******* ID# 10813 ****

 ** Profile: "SCHEMATIC1-tbg"  [ D:\Practicas\E_General\Termometro_Final-PSpiceFiles\SCHEMATIC1\tbg.sim ] 


 ****     INITIAL TRANSIENT SOLUTION       TEMPERATURE =  -68.200 DEG C


******************************************************************************



 NODE   VOLTAGE     NODE   VOLTAGE     NODE   VOLTAGE     NODE   VOLTAGE


(  VC+)    5.0000  (  VS-)    5.0000  (N05022)    1.3950 (N05026)    1.2308     

(X_D1.1) 1.601E-06 (X_D1.2)    -.0022 (X_D1.3)    1.2330 




    VOLTAGE SOURCE CURRENTS
    NAME         CURRENT

    V_V2         0.000E+00
    V_V1        -2.003E-05

    TOTAL POWER DISSIPATION   1.00E-04  WATTS


**** 03/18/22 20:36:36 ******* PSpice Lite (March 2016) ******* ID# 10813 ****

 ** Profile: "SCHEMATIC1-tbg"  [ D:\Practicas\E_General\Termometro_Final-PSpiceFiles\SCHEMATIC1\tbg.sim ] 


 ****     INITIAL TRANSIENT SOLUTION       TEMPERATURE =  -68.100 DEG C


******************************************************************************



 NODE   VOLTAGE     NODE   VOLTAGE     NODE   VOLTAGE     NODE   VOLTAGE


(  VC+)    5.0000  (  VS-)    5.0000  (N05022)    1.3950 (N05026)    1.2308     

(X_D1.1) 1.601E-06 (X_D1.2)    -.0022 (X_D1.3)    1.2330 




    VOLTAGE SOURCE CURRENTS
    NAME         CURRENT

    V_V2         0.000E+00
    V_V1        -2.003E-05

    TOTAL POWER DISSIPATION   1.00E-04  WATTS


**** 03/18/22 20:36:36 ******* PSpice Lite (March 2016) ******* ID# 10813 ****

 ** Profile: "SCHEMATIC1-tbg"  [ D:\Practicas\E_General\Termometro_Final-PSpiceFiles\SCHEMATIC1\tbg.sim ] 


 ****     INITIAL TRANSIENT SOLUTION       TEMPERATURE =  -68.000 DEG C


******************************************************************************



 NODE   VOLTAGE     NODE   VOLTAGE     NODE   VOLTAGE     NODE   VOLTAGE


(  VC+)    5.0000  (  VS-)    5.0000  (N05022)    1.3950 (N05026)    1.2308     

(X_D1.1) 1.601E-06 (X_D1.2)    -.0022 (X_D1.3)    1.2330 




    VOLTAGE SOURCE CURRENTS
    NAME         CURRENT

    V_V2         0.000E+00
    V_V1        -2.003E-05

    TOTAL POWER DISSIPATION   1.00E-04  WATTS


**** 03/18/22 20:36:36 ******* PSpice Lite (March 2016) ******* ID# 10813 ****

 ** Profile: "SCHEMATIC1-tbg"  [ D:\Practicas\E_General\Termometro_Final-PSpiceFiles\SCHEMATIC1\tbg.sim ] 


 ****     INITIAL TRANSIENT SOLUTION       TEMPERATURE =  -67.900 DEG C


******************************************************************************



 NODE   VOLTAGE     NODE   VOLTAGE     NODE   VOLTAGE     NODE   VOLTAGE


(  VC+)    5.0000  (  VS-)    5.0000  (N05022)    1.3950 (N05026)    1.2308     

(X_D1.1) 1.601E-06 (X_D1.2)    -.0022 (X_D1.3)    1.2330 




    VOLTAGE SOURCE CURRENTS
    NAME         CURRENT

    V_V2         0.000E+00
    V_V1        -2.003E-05

    TOTAL POWER DISSIPATION   1.00E-04  WATTS


**** 03/18/22 20:36:36 ******* PSpice Lite (March 2016) ******* ID# 10813 ****

 ** Profile: "SCHEMATIC1-tbg"  [ D:\Practicas\E_General\Termometro_Final-PSpiceFiles\SCHEMATIC1\tbg.sim ] 


 ****     INITIAL TRANSIENT SOLUTION       TEMPERATURE =  -67.800 DEG C


******************************************************************************



 NODE   VOLTAGE     NODE   VOLTAGE     NODE   VOLTAGE     NODE   VOLTAGE


(  VC+)    5.0000  (  VS-)    5.0000  (N05022)    1.3950 (N05026)    1.2308     

(X_D1.1) 1.601E-06 (X_D1.2)    -.0022 (X_D1.3)    1.2330 




    VOLTAGE SOURCE CURRENTS
    NAME         CURRENT

    V_V2         0.000E+00
    V_V1        -2.003E-05

    TOTAL POWER DISSIPATION   1.00E-04  WATTS


**** 03/18/22 20:36:36 ******* PSpice Lite (March 2016) ******* ID# 10813 ****

 ** Profile: "SCHEMATIC1-tbg"  [ D:\Practicas\E_General\Termometro_Final-PSpiceFiles\SCHEMATIC1\tbg.sim ] 


 ****     INITIAL TRANSIENT SOLUTION       TEMPERATURE =  -67.700 DEG C


******************************************************************************



 NODE   VOLTAGE     NODE   VOLTAGE     NODE   VOLTAGE     NODE   VOLTAGE


(  VC+)    5.0000  (  VS-)    5.0000  (N05022)    1.3951 (N05026)    1.2308     

(X_D1.1) 1.601E-06 (X_D1.2)    -.0022 (X_D1.3)    1.2330 




    VOLTAGE SOURCE CURRENTS
    NAME         CURRENT

    V_V2         0.000E+00
    V_V1        -2.003E-05

    TOTAL POWER DISSIPATION   1.00E-04  WATTS


**** 03/18/22 20:36:36 ******* PSpice Lite (March 2016) ******* ID# 10813 ****

 ** Profile: "SCHEMATIC1-tbg"  [ D:\Practicas\E_General\Termometro_Final-PSpiceFiles\SCHEMATIC1\tbg.sim ] 


 ****     INITIAL TRANSIENT SOLUTION       TEMPERATURE =  -67.600 DEG C


******************************************************************************



 NODE   VOLTAGE     NODE   VOLTAGE     NODE   VOLTAGE     NODE   VOLTAGE


(  VC+)    5.0000  (  VS-)    5.0000  (N05022)    1.3951 (N05026)    1.2308     

(X_D1.1) 1.601E-06 (X_D1.2)    -.0022 (X_D1.3)    1.2330 




    VOLTAGE SOURCE CURRENTS
    NAME         CURRENT

    V_V2         0.000E+00
    V_V1        -2.003E-05

    TOTAL POWER DISSIPATION   1.00E-04  WATTS


**** 03/18/22 20:36:36 ******* PSpice Lite (March 2016) ******* ID# 10813 ****

 ** Profile: "SCHEMATIC1-tbg"  [ D:\Practicas\E_General\Termometro_Final-PSpiceFiles\SCHEMATIC1\tbg.sim ] 


 ****     INITIAL TRANSIENT SOLUTION       TEMPERATURE =  -67.500 DEG C


******************************************************************************



 NODE   VOLTAGE     NODE   VOLTAGE     NODE   VOLTAGE     NODE   VOLTAGE


(  VC+)    5.0000  (  VS-)    5.0000  (N05022)    1.3951 (N05026)    1.2308     

(X_D1.1) 1.601E-06 (X_D1.2)    -.0022 (X_D1.3)    1.2330 




    VOLTAGE SOURCE CURRENTS
    NAME         CURRENT

    V_V2         0.000E+00
    V_V1        -2.003E-05

    TOTAL POWER DISSIPATION   1.00E-04  WATTS


**** 03/18/22 20:36:36 ******* PSpice Lite (March 2016) ******* ID# 10813 ****

 ** Profile: "SCHEMATIC1-tbg"  [ D:\Practicas\E_General\Termometro_Final-PSpiceFiles\SCHEMATIC1\tbg.sim ] 


 ****     INITIAL TRANSIENT SOLUTION       TEMPERATURE =  -67.400 DEG C


******************************************************************************



 NODE   VOLTAGE     NODE   VOLTAGE     NODE   VOLTAGE     NODE   VOLTAGE


(  VC+)    5.0000  (  VS-)    5.0000  (N05022)    1.3951 (N05026)    1.2309     

(X_D1.1) 1.601E-06 (X_D1.2)    -.0022 (X_D1.3)    1.2330 




    VOLTAGE SOURCE CURRENTS
    NAME         CURRENT

    V_V2         0.000E+00
    V_V1        -2.003E-05

    TOTAL POWER DISSIPATION   1.00E-04  WATTS


**** 03/18/22 20:36:36 ******* PSpice Lite (March 2016) ******* ID# 10813 ****

 ** Profile: "SCHEMATIC1-tbg"  [ D:\Practicas\E_General\Termometro_Final-PSpiceFiles\SCHEMATIC1\tbg.sim ] 


 ****     INITIAL TRANSIENT SOLUTION       TEMPERATURE =  -67.300 DEG C


******************************************************************************



 NODE   VOLTAGE     NODE   VOLTAGE     NODE   VOLTAGE     NODE   VOLTAGE


(  VC+)    5.0000  (  VS-)    5.0000  (N05022)    1.3951 (N05026)    1.2309     

(X_D1.1) 1.601E-06 (X_D1.2)    -.0022 (X_D1.3)    1.2331 




    VOLTAGE SOURCE CURRENTS
    NAME         CURRENT

    V_V2         0.000E+00
    V_V1        -2.003E-05

    TOTAL POWER DISSIPATION   1.00E-04  WATTS


**** 03/18/22 20:36:36 ******* PSpice Lite (March 2016) ******* ID# 10813 ****

 ** Profile: "SCHEMATIC1-tbg"  [ D:\Practicas\E_General\Termometro_Final-PSpiceFiles\SCHEMATIC1\tbg.sim ] 


 ****     INITIAL TRANSIENT SOLUTION       TEMPERATURE =  -67.200 DEG C


******************************************************************************



 NODE   VOLTAGE     NODE   VOLTAGE     NODE   VOLTAGE     NODE   VOLTAGE


(  VC+)    5.0000  (  VS-)    5.0000  (N05022)    1.3951 (N05026)    1.2309     

(X_D1.1) 1.601E-06 (X_D1.2)    -.0022 (X_D1.3)    1.2331 




    VOLTAGE SOURCE CURRENTS
    NAME         CURRENT

    V_V2         0.000E+00
    V_V1        -2.003E-05

    TOTAL POWER DISSIPATION   1.00E-04  WATTS


**** 03/18/22 20:36:36 ******* PSpice Lite (March 2016) ******* ID# 10813 ****

 ** Profile: "SCHEMATIC1-tbg"  [ D:\Practicas\E_General\Termometro_Final-PSpiceFiles\SCHEMATIC1\tbg.sim ] 


 ****     INITIAL TRANSIENT SOLUTION       TEMPERATURE =  -67.100 DEG C


******************************************************************************



 NODE   VOLTAGE     NODE   VOLTAGE     NODE   VOLTAGE     NODE   VOLTAGE


(  VC+)    5.0000  (  VS-)    5.0000  (N05022)    1.3951 (N05026)    1.2309     

(X_D1.1) 1.601E-06 (X_D1.2)    -.0022 (X_D1.3)    1.2331 




    VOLTAGE SOURCE CURRENTS
    NAME         CURRENT

    V_V2         0.000E+00
    V_V1        -2.003E-05

    TOTAL POWER DISSIPATION   1.00E-04  WATTS


**** 03/18/22 20:36:36 ******* PSpice Lite (March 2016) ******* ID# 10813 ****

 ** Profile: "SCHEMATIC1-tbg"  [ D:\Practicas\E_General\Termometro_Final-PSpiceFiles\SCHEMATIC1\tbg.sim ] 


 ****     INITIAL TRANSIENT SOLUTION       TEMPERATURE =  -67.000 DEG C


******************************************************************************



 NODE   VOLTAGE     NODE   VOLTAGE     NODE   VOLTAGE     NODE   VOLTAGE


(  VC+)    5.0000  (  VS-)    5.0000  (N05022)    1.3951 (N05026)    1.2309     

(X_D1.1) 1.601E-06 (X_D1.2)    -.0022 (X_D1.3)    1.2331 




    VOLTAGE SOURCE CURRENTS
    NAME         CURRENT

    V_V2         0.000E+00
    V_V1        -2.003E-05

    TOTAL POWER DISSIPATION   1.00E-04  WATTS


**** 03/18/22 20:36:36 ******* PSpice Lite (March 2016) ******* ID# 10813 ****

 ** Profile: "SCHEMATIC1-tbg"  [ D:\Practicas\E_General\Termometro_Final-PSpiceFiles\SCHEMATIC1\tbg.sim ] 


 ****     INITIAL TRANSIENT SOLUTION       TEMPERATURE =  -66.900 DEG C


******************************************************************************



 NODE   VOLTAGE     NODE   VOLTAGE     NODE   VOLTAGE     NODE   VOLTAGE


(  VC+)    5.0000  (  VS-)    5.0000  (N05022)    1.3951 (N05026)    1.2309     

(X_D1.1) 1.601E-06 (X_D1.2)    -.0022 (X_D1.3)    1.2331 




    VOLTAGE SOURCE CURRENTS
    NAME         CURRENT

    V_V2         0.000E+00
    V_V1        -2.003E-05

    TOTAL POWER DISSIPATION   1.00E-04  WATTS


**** 03/18/22 20:36:36 ******* PSpice Lite (March 2016) ******* ID# 10813 ****

 ** Profile: "SCHEMATIC1-tbg"  [ D:\Practicas\E_General\Termometro_Final-PSpiceFiles\SCHEMATIC1\tbg.sim ] 


 ****     INITIAL TRANSIENT SOLUTION       TEMPERATURE =  -66.800 DEG C


******************************************************************************



 NODE   VOLTAGE     NODE   VOLTAGE     NODE   VOLTAGE     NODE   VOLTAGE


(  VC+)    5.0000  (  VS-)    5.0000  (N05022)    1.3951 (N05026)    1.2309     

(X_D1.1) 1.601E-06 (X_D1.2)    -.0022 (X_D1.3)    1.2331 




    VOLTAGE SOURCE CURRENTS
    NAME         CURRENT

    V_V2         0.000E+00
    V_V1        -2.003E-05

    TOTAL POWER DISSIPATION   1.00E-04  WATTS


**** 03/18/22 20:36:36 ******* PSpice Lite (March 2016) ******* ID# 10813 ****

 ** Profile: "SCHEMATIC1-tbg"  [ D:\Practicas\E_General\Termometro_Final-PSpiceFiles\SCHEMATIC1\tbg.sim ] 


 ****     INITIAL TRANSIENT SOLUTION       TEMPERATURE =  -66.700 DEG C


******************************************************************************



 NODE   VOLTAGE     NODE   VOLTAGE     NODE   VOLTAGE     NODE   VOLTAGE


(  VC+)    5.0000  (  VS-)    5.0000  (N05022)    1.3951 (N05026)    1.2309     

(X_D1.1) 1.601E-06 (X_D1.2)    -.0022 (X_D1.3)    1.2331 




    VOLTAGE SOURCE CURRENTS
    NAME         CURRENT

    V_V2         0.000E+00
    V_V1        -2.003E-05

    TOTAL POWER DISSIPATION   1.00E-04  WATTS


**** 03/18/22 20:36:36 ******* PSpice Lite (March 2016) ******* ID# 10813 ****

 ** Profile: "SCHEMATIC1-tbg"  [ D:\Practicas\E_General\Termometro_Final-PSpiceFiles\SCHEMATIC1\tbg.sim ] 


 ****     INITIAL TRANSIENT SOLUTION       TEMPERATURE =  -66.600 DEG C


******************************************************************************



 NODE   VOLTAGE     NODE   VOLTAGE     NODE   VOLTAGE     NODE   VOLTAGE


(  VC+)    5.0000  (  VS-)    5.0000  (N05022)    1.3951 (N05026)    1.2309     

(X_D1.1) 1.601E-06 (X_D1.2)    -.0022 (X_D1.3)    1.2331 




    VOLTAGE SOURCE CURRENTS
    NAME         CURRENT

    V_V2         0.000E+00
    V_V1        -2.003E-05

    TOTAL POWER DISSIPATION   1.00E-04  WATTS


**** 03/18/22 20:36:36 ******* PSpice Lite (March 2016) ******* ID# 10813 ****

 ** Profile: "SCHEMATIC1-tbg"  [ D:\Practicas\E_General\Termometro_Final-PSpiceFiles\SCHEMATIC1\tbg.sim ] 


 ****     INITIAL TRANSIENT SOLUTION       TEMPERATURE =  -66.500 DEG C


******************************************************************************



 NODE   VOLTAGE     NODE   VOLTAGE     NODE   VOLTAGE     NODE   VOLTAGE


(  VC+)    5.0000  (  VS-)    5.0000  (N05022)    1.3952 (N05026)    1.2309     

(X_D1.1) 1.601E-06 (X_D1.2)    -.0022 (X_D1.3)    1.2331 




    VOLTAGE SOURCE CURRENTS
    NAME         CURRENT

    V_V2         0.000E+00
    V_V1        -2.003E-05

    TOTAL POWER DISSIPATION   1.00E-04  WATTS


**** 03/18/22 20:36:36 ******* PSpice Lite (March 2016) ******* ID# 10813 ****

 ** Profile: "SCHEMATIC1-tbg"  [ D:\Practicas\E_General\Termometro_Final-PSpiceFiles\SCHEMATIC1\tbg.sim ] 


 ****     INITIAL TRANSIENT SOLUTION       TEMPERATURE =  -66.400 DEG C


******************************************************************************



 NODE   VOLTAGE     NODE   VOLTAGE     NODE   VOLTAGE     NODE   VOLTAGE


(  VC+)    5.0000  (  VS-)    5.0000  (N05022)    1.3952 (N05026)    1.2309     

(X_D1.1) 1.601E-06 (X_D1.2)    -.0022 (X_D1.3)    1.2331 




    VOLTAGE SOURCE CURRENTS
    NAME         CURRENT

    V_V2         0.000E+00
    V_V1        -2.003E-05

    TOTAL POWER DISSIPATION   1.00E-04  WATTS


**** 03/18/22 20:36:36 ******* PSpice Lite (March 2016) ******* ID# 10813 ****

 ** Profile: "SCHEMATIC1-tbg"  [ D:\Practicas\E_General\Termometro_Final-PSpiceFiles\SCHEMATIC1\tbg.sim ] 


 ****     INITIAL TRANSIENT SOLUTION       TEMPERATURE =  -66.300 DEG C


******************************************************************************



 NODE   VOLTAGE     NODE   VOLTAGE     NODE   VOLTAGE     NODE   VOLTAGE


(  VC+)    5.0000  (  VS-)    5.0000  (N05022)    1.3952 (N05026)    1.2309     

(X_D1.1) 1.601E-06 (X_D1.2)    -.0022 (X_D1.3)    1.2331 




    VOLTAGE SOURCE CURRENTS
    NAME         CURRENT

    V_V2         0.000E+00
    V_V1        -2.003E-05

    TOTAL POWER DISSIPATION   1.00E-04  WATTS


**** 03/18/22 20:36:36 ******* PSpice Lite (March 2016) ******* ID# 10813 ****

 ** Profile: "SCHEMATIC1-tbg"  [ D:\Practicas\E_General\Termometro_Final-PSpiceFiles\SCHEMATIC1\tbg.sim ] 


 ****     INITIAL TRANSIENT SOLUTION       TEMPERATURE =  -66.200 DEG C


******************************************************************************



 NODE   VOLTAGE     NODE   VOLTAGE     NODE   VOLTAGE     NODE   VOLTAGE


(  VC+)    5.0000  (  VS-)    5.0000  (N05022)    1.3952 (N05026)    1.2310     

(X_D1.1) 1.601E-06 (X_D1.2)    -.0022 (X_D1.3)    1.2331 




    VOLTAGE SOURCE CURRENTS
    NAME         CURRENT

    V_V2         0.000E+00
    V_V1        -2.003E-05

    TOTAL POWER DISSIPATION   1.00E-04  WATTS


**** 03/18/22 20:36:36 ******* PSpice Lite (March 2016) ******* ID# 10813 ****

 ** Profile: "SCHEMATIC1-tbg"  [ D:\Practicas\E_General\Termometro_Final-PSpiceFiles\SCHEMATIC1\tbg.sim ] 


 ****     INITIAL TRANSIENT SOLUTION       TEMPERATURE =  -66.100 DEG C


******************************************************************************



 NODE   VOLTAGE     NODE   VOLTAGE     NODE   VOLTAGE     NODE   VOLTAGE


(  VC+)    5.0000  (  VS-)    5.0000  (N05022)    1.3952 (N05026)    1.2310     

(X_D1.1) 1.601E-06 (X_D1.2)    -.0022 (X_D1.3)    1.2332 




    VOLTAGE SOURCE CURRENTS
    NAME         CURRENT

    V_V2         0.000E+00
    V_V1        -2.003E-05

    TOTAL POWER DISSIPATION   1.00E-04  WATTS


**** 03/18/22 20:36:36 ******* PSpice Lite (March 2016) ******* ID# 10813 ****

 ** Profile: "SCHEMATIC1-tbg"  [ D:\Practicas\E_General\Termometro_Final-PSpiceFiles\SCHEMATIC1\tbg.sim ] 


 ****     INITIAL TRANSIENT SOLUTION       TEMPERATURE =  -66.000 DEG C


******************************************************************************



 NODE   VOLTAGE     NODE   VOLTAGE     NODE   VOLTAGE     NODE   VOLTAGE


(  VC+)    5.0000  (  VS-)    5.0000  (N05022)    1.3952 (N05026)    1.2310     

(X_D1.1) 1.601E-06 (X_D1.2)    -.0022 (X_D1.3)    1.2332 




    VOLTAGE SOURCE CURRENTS
    NAME         CURRENT

    V_V2         0.000E+00
    V_V1        -2.003E-05

    TOTAL POWER DISSIPATION   1.00E-04  WATTS


**** 03/18/22 20:36:36 ******* PSpice Lite (March 2016) ******* ID# 10813 ****

 ** Profile: "SCHEMATIC1-tbg"  [ D:\Practicas\E_General\Termometro_Final-PSpiceFiles\SCHEMATIC1\tbg.sim ] 


 ****     INITIAL TRANSIENT SOLUTION       TEMPERATURE =  -65.900 DEG C


******************************************************************************



 NODE   VOLTAGE     NODE   VOLTAGE     NODE   VOLTAGE     NODE   VOLTAGE


(  VC+)    5.0000  (  VS-)    5.0000  (N05022)    1.3952 (N05026)    1.2310     

(X_D1.1) 1.601E-06 (X_D1.2)    -.0022 (X_D1.3)    1.2332 




    VOLTAGE SOURCE CURRENTS
    NAME         CURRENT

    V_V2         0.000E+00
    V_V1        -2.003E-05

    TOTAL POWER DISSIPATION   1.00E-04  WATTS


**** 03/18/22 20:36:36 ******* PSpice Lite (March 2016) ******* ID# 10813 ****

 ** Profile: "SCHEMATIC1-tbg"  [ D:\Practicas\E_General\Termometro_Final-PSpiceFiles\SCHEMATIC1\tbg.sim ] 


 ****     INITIAL TRANSIENT SOLUTION       TEMPERATURE =  -65.800 DEG C


******************************************************************************



 NODE   VOLTAGE     NODE   VOLTAGE     NODE   VOLTAGE     NODE   VOLTAGE


(  VC+)    5.0000  (  VS-)    5.0000  (N05022)    1.3952 (N05026)    1.2310     

(X_D1.1) 1.601E-06 (X_D1.2)    -.0022 (X_D1.3)    1.2332 




    VOLTAGE SOURCE CURRENTS
    NAME         CURRENT

    V_V2         0.000E+00
    V_V1        -2.003E-05

    TOTAL POWER DISSIPATION   1.00E-04  WATTS


**** 03/18/22 20:36:36 ******* PSpice Lite (March 2016) ******* ID# 10813 ****

 ** Profile: "SCHEMATIC1-tbg"  [ D:\Practicas\E_General\Termometro_Final-PSpiceFiles\SCHEMATIC1\tbg.sim ] 


 ****     INITIAL TRANSIENT SOLUTION       TEMPERATURE =  -65.700 DEG C


******************************************************************************



 NODE   VOLTAGE     NODE   VOLTAGE     NODE   VOLTAGE     NODE   VOLTAGE


(  VC+)    5.0000  (  VS-)    5.0000  (N05022)    1.3952 (N05026)    1.2310     

(X_D1.1) 1.601E-06 (X_D1.2)    -.0022 (X_D1.3)    1.2332 




    VOLTAGE SOURCE CURRENTS
    NAME         CURRENT

    V_V2         0.000E+00
    V_V1        -2.003E-05

    TOTAL POWER DISSIPATION   1.00E-04  WATTS


**** 03/18/22 20:36:36 ******* PSpice Lite (March 2016) ******* ID# 10813 ****

 ** Profile: "SCHEMATIC1-tbg"  [ D:\Practicas\E_General\Termometro_Final-PSpiceFiles\SCHEMATIC1\tbg.sim ] 


 ****     INITIAL TRANSIENT SOLUTION       TEMPERATURE =  -65.600 DEG C


******************************************************************************



 NODE   VOLTAGE     NODE   VOLTAGE     NODE   VOLTAGE     NODE   VOLTAGE


(  VC+)    5.0000  (  VS-)    5.0000  (N05022)    1.3952 (N05026)    1.2310     

(X_D1.1) 1.601E-06 (X_D1.2)    -.0022 (X_D1.3)    1.2332 




    VOLTAGE SOURCE CURRENTS
    NAME         CURRENT

    V_V2         0.000E+00
    V_V1        -2.003E-05

    TOTAL POWER DISSIPATION   1.00E-04  WATTS


**** 03/18/22 20:36:36 ******* PSpice Lite (March 2016) ******* ID# 10813 ****

 ** Profile: "SCHEMATIC1-tbg"  [ D:\Practicas\E_General\Termometro_Final-PSpiceFiles\SCHEMATIC1\tbg.sim ] 


 ****     INITIAL TRANSIENT SOLUTION       TEMPERATURE =  -65.500 DEG C


******************************************************************************



 NODE   VOLTAGE     NODE   VOLTAGE     NODE   VOLTAGE     NODE   VOLTAGE


(  VC+)    5.0000  (  VS-)    5.0000  (N05022)    1.3952 (N05026)    1.2310     

(X_D1.1) 1.601E-06 (X_D1.2)    -.0022 (X_D1.3)    1.2332 




    VOLTAGE SOURCE CURRENTS
    NAME         CURRENT

    V_V2         0.000E+00
    V_V1        -2.003E-05

    TOTAL POWER DISSIPATION   1.00E-04  WATTS


**** 03/18/22 20:36:36 ******* PSpice Lite (March 2016) ******* ID# 10813 ****

 ** Profile: "SCHEMATIC1-tbg"  [ D:\Practicas\E_General\Termometro_Final-PSpiceFiles\SCHEMATIC1\tbg.sim ] 


 ****     INITIAL TRANSIENT SOLUTION       TEMPERATURE =  -65.400 DEG C


******************************************************************************



 NODE   VOLTAGE     NODE   VOLTAGE     NODE   VOLTAGE     NODE   VOLTAGE


(  VC+)    5.0000  (  VS-)    5.0000  (N05022)    1.3952 (N05026)    1.2310     

(X_D1.1) 1.601E-06 (X_D1.2)    -.0022 (X_D1.3)    1.2332 




    VOLTAGE SOURCE CURRENTS
    NAME         CURRENT

    V_V2         0.000E+00
    V_V1        -2.003E-05

    TOTAL POWER DISSIPATION   1.00E-04  WATTS


**** 03/18/22 20:36:36 ******* PSpice Lite (March 2016) ******* ID# 10813 ****

 ** Profile: "SCHEMATIC1-tbg"  [ D:\Practicas\E_General\Termometro_Final-PSpiceFiles\SCHEMATIC1\tbg.sim ] 


 ****     INITIAL TRANSIENT SOLUTION       TEMPERATURE =  -65.300 DEG C


******************************************************************************



 NODE   VOLTAGE     NODE   VOLTAGE     NODE   VOLTAGE     NODE   VOLTAGE


(  VC+)    5.0000  (  VS-)    5.0000  (N05022)    1.3952 (N05026)    1.2310     

(X_D1.1) 1.601E-06 (X_D1.2)    -.0022 (X_D1.3)    1.2332 




    VOLTAGE SOURCE CURRENTS
    NAME         CURRENT

    V_V2         0.000E+00
    V_V1        -2.003E-05

    TOTAL POWER DISSIPATION   1.00E-04  WATTS


**** 03/18/22 20:36:36 ******* PSpice Lite (March 2016) ******* ID# 10813 ****

 ** Profile: "SCHEMATIC1-tbg"  [ D:\Practicas\E_General\Termometro_Final-PSpiceFiles\SCHEMATIC1\tbg.sim ] 


 ****     INITIAL TRANSIENT SOLUTION       TEMPERATURE =  -65.200 DEG C


******************************************************************************



 NODE   VOLTAGE     NODE   VOLTAGE     NODE   VOLTAGE     NODE   VOLTAGE


(  VC+)    5.0000  (  VS-)    5.0000  (N05022)    1.3953 (N05026)    1.2310     

(X_D1.1) 1.601E-06 (X_D1.2)    -.0022 (X_D1.3)    1.2332 




    VOLTAGE SOURCE CURRENTS
    NAME         CURRENT

    V_V2         0.000E+00
    V_V1        -2.003E-05

    TOTAL POWER DISSIPATION   1.00E-04  WATTS


**** 03/18/22 20:36:36 ******* PSpice Lite (March 2016) ******* ID# 10813 ****

 ** Profile: "SCHEMATIC1-tbg"  [ D:\Practicas\E_General\Termometro_Final-PSpiceFiles\SCHEMATIC1\tbg.sim ] 


 ****     INITIAL TRANSIENT SOLUTION       TEMPERATURE =  -65.100 DEG C


******************************************************************************



 NODE   VOLTAGE     NODE   VOLTAGE     NODE   VOLTAGE     NODE   VOLTAGE


(  VC+)    5.0000  (  VS-)    5.0000  (N05022)    1.3953 (N05026)    1.2310     

(X_D1.1) 1.601E-06 (X_D1.2)    -.0022 (X_D1.3)    1.2332 




    VOLTAGE SOURCE CURRENTS
    NAME         CURRENT

    V_V2         0.000E+00
    V_V1        -2.003E-05

    TOTAL POWER DISSIPATION   1.00E-04  WATTS


**** 03/18/22 20:36:36 ******* PSpice Lite (March 2016) ******* ID# 10813 ****

 ** Profile: "SCHEMATIC1-tbg"  [ D:\Practicas\E_General\Termometro_Final-PSpiceFiles\SCHEMATIC1\tbg.sim ] 


 ****     INITIAL TRANSIENT SOLUTION       TEMPERATURE =  -65.000 DEG C


******************************************************************************



 NODE   VOLTAGE     NODE   VOLTAGE     NODE   VOLTAGE     NODE   VOLTAGE


(  VC+)    5.0000  (  VS-)    5.0000  (N05022)    1.3953 (N05026)    1.2311     

(X_D1.1) 1.601E-06 (X_D1.2)    -.0022 (X_D1.3)    1.2332 




    VOLTAGE SOURCE CURRENTS
    NAME         CURRENT

    V_V2         0.000E+00
    V_V1        -2.003E-05

    TOTAL POWER DISSIPATION   1.00E-04  WATTS


**** 03/18/22 20:36:36 ******* PSpice Lite (March 2016) ******* ID# 10813 ****

 ** Profile: "SCHEMATIC1-tbg"  [ D:\Practicas\E_General\Termometro_Final-PSpiceFiles\SCHEMATIC1\tbg.sim ] 


 ****     INITIAL TRANSIENT SOLUTION       TEMPERATURE =  -64.900 DEG C


******************************************************************************



 NODE   VOLTAGE     NODE   VOLTAGE     NODE   VOLTAGE     NODE   VOLTAGE


(  VC+)    5.0000  (  VS-)    5.0000  (N05022)    1.3953 (N05026)    1.2311     

(X_D1.1) 1.601E-06 (X_D1.2)    -.0022 (X_D1.3)    1.2332 




    VOLTAGE SOURCE CURRENTS
    NAME         CURRENT

    V_V2         0.000E+00
    V_V1        -2.003E-05

    TOTAL POWER DISSIPATION   1.00E-04  WATTS


**** 03/18/22 20:36:36 ******* PSpice Lite (March 2016) ******* ID# 10813 ****

 ** Profile: "SCHEMATIC1-tbg"  [ D:\Practicas\E_General\Termometro_Final-PSpiceFiles\SCHEMATIC1\tbg.sim ] 


 ****     INITIAL TRANSIENT SOLUTION       TEMPERATURE =  -64.800 DEG C


******************************************************************************



 NODE   VOLTAGE     NODE   VOLTAGE     NODE   VOLTAGE     NODE   VOLTAGE


(  VC+)    5.0000  (  VS-)    5.0000  (N05022)    1.3953 (N05026)    1.2311     

(X_D1.1) 1.601E-06 (X_D1.2)    -.0022 (X_D1.3)    1.2333 




    VOLTAGE SOURCE CURRENTS
    NAME         CURRENT

    V_V2         0.000E+00
    V_V1        -2.003E-05

    TOTAL POWER DISSIPATION   1.00E-04  WATTS


**** 03/18/22 20:36:36 ******* PSpice Lite (March 2016) ******* ID# 10813 ****

 ** Profile: "SCHEMATIC1-tbg"  [ D:\Practicas\E_General\Termometro_Final-PSpiceFiles\SCHEMATIC1\tbg.sim ] 


 ****     INITIAL TRANSIENT SOLUTION       TEMPERATURE =  -64.700 DEG C


******************************************************************************



 NODE   VOLTAGE     NODE   VOLTAGE     NODE   VOLTAGE     NODE   VOLTAGE


(  VC+)    5.0000  (  VS-)    5.0000  (N05022)    1.3953 (N05026)    1.2311     

(X_D1.1) 1.601E-06 (X_D1.2)    -.0022 (X_D1.3)    1.2333 




    VOLTAGE SOURCE CURRENTS
    NAME         CURRENT

    V_V2         0.000E+00
    V_V1        -2.003E-05

    TOTAL POWER DISSIPATION   1.00E-04  WATTS


**** 03/18/22 20:36:36 ******* PSpice Lite (March 2016) ******* ID# 10813 ****

 ** Profile: "SCHEMATIC1-tbg"  [ D:\Practicas\E_General\Termometro_Final-PSpiceFiles\SCHEMATIC1\tbg.sim ] 


 ****     INITIAL TRANSIENT SOLUTION       TEMPERATURE =  -64.600 DEG C


******************************************************************************



 NODE   VOLTAGE     NODE   VOLTAGE     NODE   VOLTAGE     NODE   VOLTAGE


(  VC+)    5.0000  (  VS-)    5.0000  (N05022)    1.3953 (N05026)    1.2311     

(X_D1.1) 1.601E-06 (X_D1.2)    -.0022 (X_D1.3)    1.2333 




    VOLTAGE SOURCE CURRENTS
    NAME         CURRENT

    V_V2         0.000E+00
    V_V1        -2.003E-05

    TOTAL POWER DISSIPATION   1.00E-04  WATTS


**** 03/18/22 20:36:36 ******* PSpice Lite (March 2016) ******* ID# 10813 ****

 ** Profile: "SCHEMATIC1-tbg"  [ D:\Practicas\E_General\Termometro_Final-PSpiceFiles\SCHEMATIC1\tbg.sim ] 


 ****     INITIAL TRANSIENT SOLUTION       TEMPERATURE =  -64.500 DEG C


******************************************************************************



 NODE   VOLTAGE     NODE   VOLTAGE     NODE   VOLTAGE     NODE   VOLTAGE


(  VC+)    5.0000  (  VS-)    5.0000  (N05022)    1.3953 (N05026)    1.2311     

(X_D1.1) 1.601E-06 (X_D1.2)    -.0022 (X_D1.3)    1.2333 




    VOLTAGE SOURCE CURRENTS
    NAME         CURRENT

    V_V2         0.000E+00
    V_V1        -2.003E-05

    TOTAL POWER DISSIPATION   1.00E-04  WATTS


**** 03/18/22 20:36:36 ******* PSpice Lite (March 2016) ******* ID# 10813 ****

 ** Profile: "SCHEMATIC1-tbg"  [ D:\Practicas\E_General\Termometro_Final-PSpiceFiles\SCHEMATIC1\tbg.sim ] 


 ****     INITIAL TRANSIENT SOLUTION       TEMPERATURE =  -64.400 DEG C


******************************************************************************



 NODE   VOLTAGE     NODE   VOLTAGE     NODE   VOLTAGE     NODE   VOLTAGE


(  VC+)    5.0000  (  VS-)    5.0000  (N05022)    1.3953 (N05026)    1.2311     

(X_D1.1) 1.601E-06 (X_D1.2)    -.0022 (X_D1.3)    1.2333 




    VOLTAGE SOURCE CURRENTS
    NAME         CURRENT

    V_V2         0.000E+00
    V_V1        -2.003E-05

    TOTAL POWER DISSIPATION   1.00E-04  WATTS


**** 03/18/22 20:36:36 ******* PSpice Lite (March 2016) ******* ID# 10813 ****

 ** Profile: "SCHEMATIC1-tbg"  [ D:\Practicas\E_General\Termometro_Final-PSpiceFiles\SCHEMATIC1\tbg.sim ] 


 ****     INITIAL TRANSIENT SOLUTION       TEMPERATURE =  -64.300 DEG C


******************************************************************************



 NODE   VOLTAGE     NODE   VOLTAGE     NODE   VOLTAGE     NODE   VOLTAGE


(  VC+)    5.0000  (  VS-)    5.0000  (N05022)    1.3953 (N05026)    1.2311     

(X_D1.1) 1.601E-06 (X_D1.2)    -.0022 (X_D1.3)    1.2333 




    VOLTAGE SOURCE CURRENTS
    NAME         CURRENT

    V_V2         0.000E+00
    V_V1        -2.003E-05

    TOTAL POWER DISSIPATION   1.00E-04  WATTS


**** 03/18/22 20:36:36 ******* PSpice Lite (March 2016) ******* ID# 10813 ****

 ** Profile: "SCHEMATIC1-tbg"  [ D:\Practicas\E_General\Termometro_Final-PSpiceFiles\SCHEMATIC1\tbg.sim ] 


 ****     INITIAL TRANSIENT SOLUTION       TEMPERATURE =  -64.200 DEG C


******************************************************************************



 NODE   VOLTAGE     NODE   VOLTAGE     NODE   VOLTAGE     NODE   VOLTAGE


(  VC+)    5.0000  (  VS-)    5.0000  (N05022)    1.3953 (N05026)    1.2311     

(X_D1.1) 1.601E-06 (X_D1.2)    -.0022 (X_D1.3)    1.2333 




    VOLTAGE SOURCE CURRENTS
    NAME         CURRENT

    V_V2         0.000E+00
    V_V1        -2.003E-05

    TOTAL POWER DISSIPATION   1.00E-04  WATTS


**** 03/18/22 20:36:36 ******* PSpice Lite (March 2016) ******* ID# 10813 ****

 ** Profile: "SCHEMATIC1-tbg"  [ D:\Practicas\E_General\Termometro_Final-PSpiceFiles\SCHEMATIC1\tbg.sim ] 


 ****     INITIAL TRANSIENT SOLUTION       TEMPERATURE =  -64.100 DEG C


******************************************************************************



 NODE   VOLTAGE     NODE   VOLTAGE     NODE   VOLTAGE     NODE   VOLTAGE


(  VC+)    5.0000  (  VS-)    5.0000  (N05022)    1.3953 (N05026)    1.2311     

(X_D1.1) 1.601E-06 (X_D1.2)    -.0022 (X_D1.3)    1.2333 




    VOLTAGE SOURCE CURRENTS
    NAME         CURRENT

    V_V2         0.000E+00
    V_V1        -2.003E-05

    TOTAL POWER DISSIPATION   1.00E-04  WATTS


**** 03/18/22 20:36:36 ******* PSpice Lite (March 2016) ******* ID# 10813 ****

 ** Profile: "SCHEMATIC1-tbg"  [ D:\Practicas\E_General\Termometro_Final-PSpiceFiles\SCHEMATIC1\tbg.sim ] 


 ****     INITIAL TRANSIENT SOLUTION       TEMPERATURE =  -64.000 DEG C


******************************************************************************



 NODE   VOLTAGE     NODE   VOLTAGE     NODE   VOLTAGE     NODE   VOLTAGE


(  VC+)    5.0000  (  VS-)    5.0000  (N05022)    1.3953 (N05026)    1.2311     

(X_D1.1) 1.601E-06 (X_D1.2)    -.0022 (X_D1.3)    1.2333 




    VOLTAGE SOURCE CURRENTS
    NAME         CURRENT

    V_V2         0.000E+00
    V_V1        -2.003E-05

    TOTAL POWER DISSIPATION   1.00E-04  WATTS


**** 03/18/22 20:36:36 ******* PSpice Lite (March 2016) ******* ID# 10813 ****

 ** Profile: "SCHEMATIC1-tbg"  [ D:\Practicas\E_General\Termometro_Final-PSpiceFiles\SCHEMATIC1\tbg.sim ] 


 ****     INITIAL TRANSIENT SOLUTION       TEMPERATURE =  -63.900 DEG C


******************************************************************************



 NODE   VOLTAGE     NODE   VOLTAGE     NODE   VOLTAGE     NODE   VOLTAGE


(  VC+)    5.0000  (  VS-)    5.0000  (N05022)    1.3954 (N05026)    1.2311     

(X_D1.1) 1.601E-06 (X_D1.2)    -.0022 (X_D1.3)    1.2333 




    VOLTAGE SOURCE CURRENTS
    NAME         CURRENT

    V_V2         0.000E+00
    V_V1        -2.003E-05

    TOTAL POWER DISSIPATION   1.00E-04  WATTS


**** 03/18/22 20:36:36 ******* PSpice Lite (March 2016) ******* ID# 10813 ****

 ** Profile: "SCHEMATIC1-tbg"  [ D:\Practicas\E_General\Termometro_Final-PSpiceFiles\SCHEMATIC1\tbg.sim ] 


 ****     INITIAL TRANSIENT SOLUTION       TEMPERATURE =  -63.800 DEG C


******************************************************************************



 NODE   VOLTAGE     NODE   VOLTAGE     NODE   VOLTAGE     NODE   VOLTAGE


(  VC+)    5.0000  (  VS-)    5.0000  (N05022)    1.3954 (N05026)    1.2311     

(X_D1.1) 1.601E-06 (X_D1.2)    -.0022 (X_D1.3)    1.2333 




    VOLTAGE SOURCE CURRENTS
    NAME         CURRENT

    V_V2         0.000E+00
    V_V1        -2.003E-05

    TOTAL POWER DISSIPATION   1.00E-04  WATTS


**** 03/18/22 20:36:36 ******* PSpice Lite (March 2016) ******* ID# 10813 ****

 ** Profile: "SCHEMATIC1-tbg"  [ D:\Practicas\E_General\Termometro_Final-PSpiceFiles\SCHEMATIC1\tbg.sim ] 


 ****     INITIAL TRANSIENT SOLUTION       TEMPERATURE =  -63.700 DEG C


******************************************************************************



 NODE   VOLTAGE     NODE   VOLTAGE     NODE   VOLTAGE     NODE   VOLTAGE


(  VC+)    5.0000  (  VS-)    5.0000  (N05022)    1.3954 (N05026)    1.2312     

(X_D1.1) 1.601E-06 (X_D1.2)    -.0022 (X_D1.3)    1.2333 




    VOLTAGE SOURCE CURRENTS
    NAME         CURRENT

    V_V2         0.000E+00
    V_V1        -2.003E-05

    TOTAL POWER DISSIPATION   1.00E-04  WATTS


**** 03/18/22 20:36:36 ******* PSpice Lite (March 2016) ******* ID# 10813 ****

 ** Profile: "SCHEMATIC1-tbg"  [ D:\Practicas\E_General\Termometro_Final-PSpiceFiles\SCHEMATIC1\tbg.sim ] 


 ****     INITIAL TRANSIENT SOLUTION       TEMPERATURE =  -63.600 DEG C


******************************************************************************



 NODE   VOLTAGE     NODE   VOLTAGE     NODE   VOLTAGE     NODE   VOLTAGE


(  VC+)    5.0000  (  VS-)    5.0000  (N05022)    1.3954 (N05026)    1.2312     

(X_D1.1) 1.601E-06 (X_D1.2)    -.0022 (X_D1.3)    1.2334 




    VOLTAGE SOURCE CURRENTS
    NAME         CURRENT

    V_V2         0.000E+00
    V_V1        -2.003E-05

    TOTAL POWER DISSIPATION   1.00E-04  WATTS


**** 03/18/22 20:36:36 ******* PSpice Lite (March 2016) ******* ID# 10813 ****

 ** Profile: "SCHEMATIC1-tbg"  [ D:\Practicas\E_General\Termometro_Final-PSpiceFiles\SCHEMATIC1\tbg.sim ] 


 ****     INITIAL TRANSIENT SOLUTION       TEMPERATURE =  -63.500 DEG C


******************************************************************************



 NODE   VOLTAGE     NODE   VOLTAGE     NODE   VOLTAGE     NODE   VOLTAGE


(  VC+)    5.0000  (  VS-)    5.0000  (N05022)    1.3954 (N05026)    1.2312     

(X_D1.1) 1.601E-06 (X_D1.2)    -.0022 (X_D1.3)    1.2334 




    VOLTAGE SOURCE CURRENTS
    NAME         CURRENT

    V_V2         0.000E+00
    V_V1        -2.003E-05

    TOTAL POWER DISSIPATION   1.00E-04  WATTS


**** 03/18/22 20:36:36 ******* PSpice Lite (March 2016) ******* ID# 10813 ****

 ** Profile: "SCHEMATIC1-tbg"  [ D:\Practicas\E_General\Termometro_Final-PSpiceFiles\SCHEMATIC1\tbg.sim ] 


 ****     INITIAL TRANSIENT SOLUTION       TEMPERATURE =  -63.400 DEG C


******************************************************************************



 NODE   VOLTAGE     NODE   VOLTAGE     NODE   VOLTAGE     NODE   VOLTAGE


(  VC+)    5.0000  (  VS-)    5.0000  (N05022)    1.3954 (N05026)    1.2312     

(X_D1.1) 1.601E-06 (X_D1.2)    -.0022 (X_D1.3)    1.2334 




    VOLTAGE SOURCE CURRENTS
    NAME         CURRENT

    V_V2         0.000E+00
    V_V1        -2.003E-05

    TOTAL POWER DISSIPATION   1.00E-04  WATTS


**** 03/18/22 20:36:36 ******* PSpice Lite (March 2016) ******* ID# 10813 ****

 ** Profile: "SCHEMATIC1-tbg"  [ D:\Practicas\E_General\Termometro_Final-PSpiceFiles\SCHEMATIC1\tbg.sim ] 


 ****     INITIAL TRANSIENT SOLUTION       TEMPERATURE =  -63.300 DEG C


******************************************************************************



 NODE   VOLTAGE     NODE   VOLTAGE     NODE   VOLTAGE     NODE   VOLTAGE


(  VC+)    5.0000  (  VS-)    5.0000  (N05022)    1.3954 (N05026)    1.2312     

(X_D1.1) 1.601E-06 (X_D1.2)    -.0022 (X_D1.3)    1.2334 




    VOLTAGE SOURCE CURRENTS
    NAME         CURRENT

    V_V2         0.000E+00
    V_V1        -2.003E-05

    TOTAL POWER DISSIPATION   1.00E-04  WATTS


**** 03/18/22 20:36:36 ******* PSpice Lite (March 2016) ******* ID# 10813 ****

 ** Profile: "SCHEMATIC1-tbg"  [ D:\Practicas\E_General\Termometro_Final-PSpiceFiles\SCHEMATIC1\tbg.sim ] 


 ****     INITIAL TRANSIENT SOLUTION       TEMPERATURE =  -63.200 DEG C


******************************************************************************



 NODE   VOLTAGE     NODE   VOLTAGE     NODE   VOLTAGE     NODE   VOLTAGE


(  VC+)    5.0000  (  VS-)    5.0000  (N05022)    1.3954 (N05026)    1.2312     

(X_D1.1) 1.601E-06 (X_D1.2)    -.0022 (X_D1.3)    1.2334 




    VOLTAGE SOURCE CURRENTS
    NAME         CURRENT

    V_V2         0.000E+00
    V_V1        -2.003E-05

    TOTAL POWER DISSIPATION   1.00E-04  WATTS


**** 03/18/22 20:36:36 ******* PSpice Lite (March 2016) ******* ID# 10813 ****

 ** Profile: "SCHEMATIC1-tbg"  [ D:\Practicas\E_General\Termometro_Final-PSpiceFiles\SCHEMATIC1\tbg.sim ] 


 ****     INITIAL TRANSIENT SOLUTION       TEMPERATURE =  -63.100 DEG C


******************************************************************************



 NODE   VOLTAGE     NODE   VOLTAGE     NODE   VOLTAGE     NODE   VOLTAGE


(  VC+)    5.0000  (  VS-)    5.0000  (N05022)    1.3954 (N05026)    1.2312     

(X_D1.1) 1.601E-06 (X_D1.2)    -.0022 (X_D1.3)    1.2334 




    VOLTAGE SOURCE CURRENTS
    NAME         CURRENT

    V_V2         0.000E+00
    V_V1        -2.003E-05

    TOTAL POWER DISSIPATION   1.00E-04  WATTS


**** 03/18/22 20:36:36 ******* PSpice Lite (March 2016) ******* ID# 10813 ****

 ** Profile: "SCHEMATIC1-tbg"  [ D:\Practicas\E_General\Termometro_Final-PSpiceFiles\SCHEMATIC1\tbg.sim ] 


 ****     INITIAL TRANSIENT SOLUTION       TEMPERATURE =  -63.000 DEG C


******************************************************************************



 NODE   VOLTAGE     NODE   VOLTAGE     NODE   VOLTAGE     NODE   VOLTAGE


(  VC+)    5.0000  (  VS-)    5.0000  (N05022)    1.3954 (N05026)    1.2312     

(X_D1.1) 1.601E-06 (X_D1.2)    -.0022 (X_D1.3)    1.2334 




    VOLTAGE SOURCE CURRENTS
    NAME         CURRENT

    V_V2         0.000E+00
    V_V1        -2.003E-05

    TOTAL POWER DISSIPATION   1.00E-04  WATTS


**** 03/18/22 20:36:36 ******* PSpice Lite (March 2016) ******* ID# 10813 ****

 ** Profile: "SCHEMATIC1-tbg"  [ D:\Practicas\E_General\Termometro_Final-PSpiceFiles\SCHEMATIC1\tbg.sim ] 


 ****     INITIAL TRANSIENT SOLUTION       TEMPERATURE =  -62.900 DEG C


******************************************************************************



 NODE   VOLTAGE     NODE   VOLTAGE     NODE   VOLTAGE     NODE   VOLTAGE


(  VC+)    5.0000  (  VS-)    5.0000  (N05022)    1.3954 (N05026)    1.2312     

(X_D1.1) 1.601E-06 (X_D1.2)    -.0022 (X_D1.3)    1.2334 




    VOLTAGE SOURCE CURRENTS
    NAME         CURRENT

    V_V2         0.000E+00
    V_V1        -2.003E-05

    TOTAL POWER DISSIPATION   1.00E-04  WATTS


**** 03/18/22 20:36:36 ******* PSpice Lite (March 2016) ******* ID# 10813 ****

 ** Profile: "SCHEMATIC1-tbg"  [ D:\Practicas\E_General\Termometro_Final-PSpiceFiles\SCHEMATIC1\tbg.sim ] 


 ****     INITIAL TRANSIENT SOLUTION       TEMPERATURE =  -62.800 DEG C


******************************************************************************



 NODE   VOLTAGE     NODE   VOLTAGE     NODE   VOLTAGE     NODE   VOLTAGE


(  VC+)    5.0000  (  VS-)    5.0000  (N05022)    1.3954 (N05026)    1.2312     

(X_D1.1) 1.601E-06 (X_D1.2)    -.0022 (X_D1.3)    1.2334 




    VOLTAGE SOURCE CURRENTS
    NAME         CURRENT

    V_V2         0.000E+00
    V_V1        -2.003E-05

    TOTAL POWER DISSIPATION   1.00E-04  WATTS


**** 03/18/22 20:36:36 ******* PSpice Lite (March 2016) ******* ID# 10813 ****

 ** Profile: "SCHEMATIC1-tbg"  [ D:\Practicas\E_General\Termometro_Final-PSpiceFiles\SCHEMATIC1\tbg.sim ] 


 ****     INITIAL TRANSIENT SOLUTION       TEMPERATURE =  -62.700 DEG C


******************************************************************************



 NODE   VOLTAGE     NODE   VOLTAGE     NODE   VOLTAGE     NODE   VOLTAGE


(  VC+)    5.0000  (  VS-)    5.0000  (N05022)    1.3954 (N05026)    1.2312     

(X_D1.1) 1.601E-06 (X_D1.2)    -.0022 (X_D1.3)    1.2334 




    VOLTAGE SOURCE CURRENTS
    NAME         CURRENT

    V_V2         0.000E+00
    V_V1        -2.003E-05

    TOTAL POWER DISSIPATION   1.00E-04  WATTS


**** 03/18/22 20:36:36 ******* PSpice Lite (March 2016) ******* ID# 10813 ****

 ** Profile: "SCHEMATIC1-tbg"  [ D:\Practicas\E_General\Termometro_Final-PSpiceFiles\SCHEMATIC1\tbg.sim ] 


 ****     INITIAL TRANSIENT SOLUTION       TEMPERATURE =  -62.600 DEG C


******************************************************************************



 NODE   VOLTAGE     NODE   VOLTAGE     NODE   VOLTAGE     NODE   VOLTAGE


(  VC+)    5.0000  (  VS-)    5.0000  (N05022)    1.3954 (N05026)    1.2312     

(X_D1.1) 1.601E-06 (X_D1.2)    -.0022 (X_D1.3)    1.2334 




    VOLTAGE SOURCE CURRENTS
    NAME         CURRENT

    V_V2         0.000E+00
    V_V1        -2.003E-05

    TOTAL POWER DISSIPATION   1.00E-04  WATTS


**** 03/18/22 20:36:36 ******* PSpice Lite (March 2016) ******* ID# 10813 ****

 ** Profile: "SCHEMATIC1-tbg"  [ D:\Practicas\E_General\Termometro_Final-PSpiceFiles\SCHEMATIC1\tbg.sim ] 


 ****     INITIAL TRANSIENT SOLUTION       TEMPERATURE =  -62.500 DEG C


******************************************************************************



 NODE   VOLTAGE     NODE   VOLTAGE     NODE   VOLTAGE     NODE   VOLTAGE


(  VC+)    5.0000  (  VS-)    5.0000  (N05022)    1.3955 (N05026)    1.2312     

(X_D1.1) 1.601E-06 (X_D1.2)    -.0022 (X_D1.3)    1.2334 




    VOLTAGE SOURCE CURRENTS
    NAME         CURRENT

    V_V2         0.000E+00
    V_V1        -2.003E-05

    TOTAL POWER DISSIPATION   1.00E-04  WATTS


**** 03/18/22 20:36:36 ******* PSpice Lite (March 2016) ******* ID# 10813 ****

 ** Profile: "SCHEMATIC1-tbg"  [ D:\Practicas\E_General\Termometro_Final-PSpiceFiles\SCHEMATIC1\tbg.sim ] 


 ****     INITIAL TRANSIENT SOLUTION       TEMPERATURE =  -62.400 DEG C


******************************************************************************



 NODE   VOLTAGE     NODE   VOLTAGE     NODE   VOLTAGE     NODE   VOLTAGE


(  VC+)    5.0000  (  VS-)    5.0000  (N05022)    1.3955 (N05026)    1.2313     

(X_D1.1) 1.601E-06 (X_D1.2)    -.0022 (X_D1.3)    1.2334 




    VOLTAGE SOURCE CURRENTS
    NAME         CURRENT

    V_V2         0.000E+00
    V_V1        -2.003E-05

    TOTAL POWER DISSIPATION   1.00E-04  WATTS


**** 03/18/22 20:36:36 ******* PSpice Lite (March 2016) ******* ID# 10813 ****

 ** Profile: "SCHEMATIC1-tbg"  [ D:\Practicas\E_General\Termometro_Final-PSpiceFiles\SCHEMATIC1\tbg.sim ] 


 ****     INITIAL TRANSIENT SOLUTION       TEMPERATURE =  -62.300 DEG C


******************************************************************************



 NODE   VOLTAGE     NODE   VOLTAGE     NODE   VOLTAGE     NODE   VOLTAGE


(  VC+)    5.0000  (  VS-)    5.0000  (N05022)    1.3955 (N05026)    1.2313     

(X_D1.1) 1.601E-06 (X_D1.2)    -.0022 (X_D1.3)    1.2335 




    VOLTAGE SOURCE CURRENTS
    NAME         CURRENT

    V_V2         0.000E+00
    V_V1        -2.003E-05

    TOTAL POWER DISSIPATION   1.00E-04  WATTS


**** 03/18/22 20:36:36 ******* PSpice Lite (March 2016) ******* ID# 10813 ****

 ** Profile: "SCHEMATIC1-tbg"  [ D:\Practicas\E_General\Termometro_Final-PSpiceFiles\SCHEMATIC1\tbg.sim ] 


 ****     INITIAL TRANSIENT SOLUTION       TEMPERATURE =  -62.200 DEG C


******************************************************************************



 NODE   VOLTAGE     NODE   VOLTAGE     NODE   VOLTAGE     NODE   VOLTAGE


(  VC+)    5.0000  (  VS-)    5.0000  (N05022)    1.3955 (N05026)    1.2313     

(X_D1.1) 1.601E-06 (X_D1.2)    -.0022 (X_D1.3)    1.2335 




    VOLTAGE SOURCE CURRENTS
    NAME         CURRENT

    V_V2         0.000E+00
    V_V1        -2.003E-05

    TOTAL POWER DISSIPATION   1.00E-04  WATTS


**** 03/18/22 20:36:36 ******* PSpice Lite (March 2016) ******* ID# 10813 ****

 ** Profile: "SCHEMATIC1-tbg"  [ D:\Practicas\E_General\Termometro_Final-PSpiceFiles\SCHEMATIC1\tbg.sim ] 


 ****     INITIAL TRANSIENT SOLUTION       TEMPERATURE =  -62.100 DEG C


******************************************************************************



 NODE   VOLTAGE     NODE   VOLTAGE     NODE   VOLTAGE     NODE   VOLTAGE


(  VC+)    5.0000  (  VS-)    5.0000  (N05022)    1.3955 (N05026)    1.2313     

(X_D1.1) 1.601E-06 (X_D1.2)    -.0022 (X_D1.3)    1.2335 




    VOLTAGE SOURCE CURRENTS
    NAME         CURRENT

    V_V2         0.000E+00
    V_V1        -2.003E-05

    TOTAL POWER DISSIPATION   1.00E-04  WATTS


**** 03/18/22 20:36:36 ******* PSpice Lite (March 2016) ******* ID# 10813 ****

 ** Profile: "SCHEMATIC1-tbg"  [ D:\Practicas\E_General\Termometro_Final-PSpiceFiles\SCHEMATIC1\tbg.sim ] 


 ****     INITIAL TRANSIENT SOLUTION       TEMPERATURE =  -62.000 DEG C


******************************************************************************



 NODE   VOLTAGE     NODE   VOLTAGE     NODE   VOLTAGE     NODE   VOLTAGE


(  VC+)    5.0000  (  VS-)    5.0000  (N05022)    1.3955 (N05026)    1.2313     

(X_D1.1) 1.601E-06 (X_D1.2)    -.0022 (X_D1.3)    1.2335 




    VOLTAGE SOURCE CURRENTS
    NAME         CURRENT

    V_V2         0.000E+00
    V_V1        -2.003E-05

    TOTAL POWER DISSIPATION   1.00E-04  WATTS


**** 03/18/22 20:36:36 ******* PSpice Lite (March 2016) ******* ID# 10813 ****

 ** Profile: "SCHEMATIC1-tbg"  [ D:\Practicas\E_General\Termometro_Final-PSpiceFiles\SCHEMATIC1\tbg.sim ] 


 ****     INITIAL TRANSIENT SOLUTION       TEMPERATURE =  -61.900 DEG C


******************************************************************************



 NODE   VOLTAGE     NODE   VOLTAGE     NODE   VOLTAGE     NODE   VOLTAGE


(  VC+)    5.0000  (  VS-)    5.0000  (N05022)    1.3955 (N05026)    1.2313     

(X_D1.1) 1.601E-06 (X_D1.2)    -.0022 (X_D1.3)    1.2335 




    VOLTAGE SOURCE CURRENTS
    NAME         CURRENT

    V_V2         0.000E+00
    V_V1        -2.003E-05

    TOTAL POWER DISSIPATION   1.00E-04  WATTS


**** 03/18/22 20:36:36 ******* PSpice Lite (March 2016) ******* ID# 10813 ****

 ** Profile: "SCHEMATIC1-tbg"  [ D:\Practicas\E_General\Termometro_Final-PSpiceFiles\SCHEMATIC1\tbg.sim ] 


 ****     INITIAL TRANSIENT SOLUTION       TEMPERATURE =  -61.800 DEG C


******************************************************************************



 NODE   VOLTAGE     NODE   VOLTAGE     NODE   VOLTAGE     NODE   VOLTAGE


(  VC+)    5.0000  (  VS-)    5.0000  (N05022)    1.3955 (N05026)    1.2313     

(X_D1.1) 1.601E-06 (X_D1.2)    -.0022 (X_D1.3)    1.2335 




    VOLTAGE SOURCE CURRENTS
    NAME         CURRENT

    V_V2         0.000E+00
    V_V1        -2.003E-05

    TOTAL POWER DISSIPATION   1.00E-04  WATTS


**** 03/18/22 20:36:36 ******* PSpice Lite (March 2016) ******* ID# 10813 ****

 ** Profile: "SCHEMATIC1-tbg"  [ D:\Practicas\E_General\Termometro_Final-PSpiceFiles\SCHEMATIC1\tbg.sim ] 


 ****     INITIAL TRANSIENT SOLUTION       TEMPERATURE =  -61.700 DEG C


******************************************************************************



 NODE   VOLTAGE     NODE   VOLTAGE     NODE   VOLTAGE     NODE   VOLTAGE


(  VC+)    5.0000  (  VS-)    5.0000  (N05022)    1.3955 (N05026)    1.2313     

(X_D1.1) 1.601E-06 (X_D1.2)    -.0022 (X_D1.3)    1.2335 




    VOLTAGE SOURCE CURRENTS
    NAME         CURRENT

    V_V2         0.000E+00
    V_V1        -2.002E-05

    TOTAL POWER DISSIPATION   1.00E-04  WATTS


**** 03/18/22 20:36:36 ******* PSpice Lite (March 2016) ******* ID# 10813 ****

 ** Profile: "SCHEMATIC1-tbg"  [ D:\Practicas\E_General\Termometro_Final-PSpiceFiles\SCHEMATIC1\tbg.sim ] 


 ****     INITIAL TRANSIENT SOLUTION       TEMPERATURE =  -61.600 DEG C


******************************************************************************



 NODE   VOLTAGE     NODE   VOLTAGE     NODE   VOLTAGE     NODE   VOLTAGE


(  VC+)    5.0000  (  VS-)    5.0000  (N05022)    1.3955 (N05026)    1.2313     

(X_D1.1) 1.601E-06 (X_D1.2)    -.0022 (X_D1.3)    1.2335 




    VOLTAGE SOURCE CURRENTS
    NAME         CURRENT

    V_V2         0.000E+00
    V_V1        -2.002E-05

    TOTAL POWER DISSIPATION   1.00E-04  WATTS


**** 03/18/22 20:36:36 ******* PSpice Lite (March 2016) ******* ID# 10813 ****

 ** Profile: "SCHEMATIC1-tbg"  [ D:\Practicas\E_General\Termometro_Final-PSpiceFiles\SCHEMATIC1\tbg.sim ] 


 ****     INITIAL TRANSIENT SOLUTION       TEMPERATURE =  -61.500 DEG C


******************************************************************************



 NODE   VOLTAGE     NODE   VOLTAGE     NODE   VOLTAGE     NODE   VOLTAGE


(  VC+)    5.0000  (  VS-)    5.0000  (N05022)    1.3955 (N05026)    1.2313     

(X_D1.1) 1.601E-06 (X_D1.2)    -.0022 (X_D1.3)    1.2335 




    VOLTAGE SOURCE CURRENTS
    NAME         CURRENT

    V_V2         0.000E+00
    V_V1        -2.002E-05

    TOTAL POWER DISSIPATION   1.00E-04  WATTS


**** 03/18/22 20:36:36 ******* PSpice Lite (March 2016) ******* ID# 10813 ****

 ** Profile: "SCHEMATIC1-tbg"  [ D:\Practicas\E_General\Termometro_Final-PSpiceFiles\SCHEMATIC1\tbg.sim ] 


 ****     INITIAL TRANSIENT SOLUTION       TEMPERATURE =  -61.400 DEG C


******************************************************************************



 NODE   VOLTAGE     NODE   VOLTAGE     NODE   VOLTAGE     NODE   VOLTAGE


(  VC+)    5.0000  (  VS-)    5.0000  (N05022)    1.3955 (N05026)    1.2313     

(X_D1.1) 1.600E-06 (X_D1.2)    -.0022 (X_D1.3)    1.2335 




    VOLTAGE SOURCE CURRENTS
    NAME         CURRENT

    V_V2         0.000E+00
    V_V1        -2.002E-05

    TOTAL POWER DISSIPATION   1.00E-04  WATTS


**** 03/18/22 20:36:36 ******* PSpice Lite (March 2016) ******* ID# 10813 ****

 ** Profile: "SCHEMATIC1-tbg"  [ D:\Practicas\E_General\Termometro_Final-PSpiceFiles\SCHEMATIC1\tbg.sim ] 


 ****     INITIAL TRANSIENT SOLUTION       TEMPERATURE =  -61.300 DEG C


******************************************************************************



 NODE   VOLTAGE     NODE   VOLTAGE     NODE   VOLTAGE     NODE   VOLTAGE


(  VC+)    5.0000  (  VS-)    5.0000  (N05022)    1.3955 (N05026)    1.2313     

(X_D1.1) 1.600E-06 (X_D1.2)    -.0022 (X_D1.3)    1.2335 




    VOLTAGE SOURCE CURRENTS
    NAME         CURRENT

    V_V2         0.000E+00
    V_V1        -2.002E-05

    TOTAL POWER DISSIPATION   1.00E-04  WATTS


**** 03/18/22 20:36:36 ******* PSpice Lite (March 2016) ******* ID# 10813 ****

 ** Profile: "SCHEMATIC1-tbg"  [ D:\Practicas\E_General\Termometro_Final-PSpiceFiles\SCHEMATIC1\tbg.sim ] 


 ****     INITIAL TRANSIENT SOLUTION       TEMPERATURE =  -61.200 DEG C


******************************************************************************



 NODE   VOLTAGE     NODE   VOLTAGE     NODE   VOLTAGE     NODE   VOLTAGE


(  VC+)    5.0000  (  VS-)    5.0000  (N05022)    1.3956 (N05026)    1.2314     

(X_D1.1) 1.600E-06 (X_D1.2)    -.0022 (X_D1.3)    1.2335 




    VOLTAGE SOURCE CURRENTS
    NAME         CURRENT

    V_V2         0.000E+00
    V_V1        -2.002E-05

    TOTAL POWER DISSIPATION   1.00E-04  WATTS


**** 03/18/22 20:36:36 ******* PSpice Lite (March 2016) ******* ID# 10813 ****

 ** Profile: "SCHEMATIC1-tbg"  [ D:\Practicas\E_General\Termometro_Final-PSpiceFiles\SCHEMATIC1\tbg.sim ] 


 ****     INITIAL TRANSIENT SOLUTION       TEMPERATURE =  -61.100 DEG C


******************************************************************************



 NODE   VOLTAGE     NODE   VOLTAGE     NODE   VOLTAGE     NODE   VOLTAGE


(  VC+)    5.0000  (  VS-)    5.0000  (N05022)    1.3956 (N05026)    1.2314     

(X_D1.1) 1.600E-06 (X_D1.2)    -.0022 (X_D1.3)    1.2335 




    VOLTAGE SOURCE CURRENTS
    NAME         CURRENT

    V_V2         0.000E+00
    V_V1        -2.002E-05

    TOTAL POWER DISSIPATION   1.00E-04  WATTS


**** 03/18/22 20:36:36 ******* PSpice Lite (March 2016) ******* ID# 10813 ****

 ** Profile: "SCHEMATIC1-tbg"  [ D:\Practicas\E_General\Termometro_Final-PSpiceFiles\SCHEMATIC1\tbg.sim ] 


 ****     INITIAL TRANSIENT SOLUTION       TEMPERATURE =  -61.000 DEG C


******************************************************************************



 NODE   VOLTAGE     NODE   VOLTAGE     NODE   VOLTAGE     NODE   VOLTAGE


(  VC+)    5.0000  (  VS-)    5.0000  (N05022)    1.3956 (N05026)    1.2314     

(X_D1.1) 1.600E-06 (X_D1.2)    -.0022 (X_D1.3)    1.2336 




    VOLTAGE SOURCE CURRENTS
    NAME         CURRENT

    V_V2         0.000E+00
    V_V1        -2.002E-05

    TOTAL POWER DISSIPATION   1.00E-04  WATTS


**** 03/18/22 20:36:36 ******* PSpice Lite (March 2016) ******* ID# 10813 ****

 ** Profile: "SCHEMATIC1-tbg"  [ D:\Practicas\E_General\Termometro_Final-PSpiceFiles\SCHEMATIC1\tbg.sim ] 


 ****     INITIAL TRANSIENT SOLUTION       TEMPERATURE =  -60.900 DEG C


******************************************************************************



 NODE   VOLTAGE     NODE   VOLTAGE     NODE   VOLTAGE     NODE   VOLTAGE


(  VC+)    5.0000  (  VS-)    5.0000  (N05022)    1.3956 (N05026)    1.2314     

(X_D1.1) 1.600E-06 (X_D1.2)    -.0022 (X_D1.3)    1.2336 




    VOLTAGE SOURCE CURRENTS
    NAME         CURRENT

    V_V2         0.000E+00
    V_V1        -2.002E-05

    TOTAL POWER DISSIPATION   1.00E-04  WATTS


**** 03/18/22 20:36:36 ******* PSpice Lite (March 2016) ******* ID# 10813 ****

 ** Profile: "SCHEMATIC1-tbg"  [ D:\Practicas\E_General\Termometro_Final-PSpiceFiles\SCHEMATIC1\tbg.sim ] 


 ****     INITIAL TRANSIENT SOLUTION       TEMPERATURE =  -60.800 DEG C


******************************************************************************



 NODE   VOLTAGE     NODE   VOLTAGE     NODE   VOLTAGE     NODE   VOLTAGE


(  VC+)    5.0000  (  VS-)    5.0000  (N05022)    1.3956 (N05026)    1.2314     

(X_D1.1) 1.600E-06 (X_D1.2)    -.0022 (X_D1.3)    1.2336 




    VOLTAGE SOURCE CURRENTS
    NAME         CURRENT

    V_V2         0.000E+00
    V_V1        -2.002E-05

    TOTAL POWER DISSIPATION   1.00E-04  WATTS


**** 03/18/22 20:36:36 ******* PSpice Lite (March 2016) ******* ID# 10813 ****

 ** Profile: "SCHEMATIC1-tbg"  [ D:\Practicas\E_General\Termometro_Final-PSpiceFiles\SCHEMATIC1\tbg.sim ] 


 ****     INITIAL TRANSIENT SOLUTION       TEMPERATURE =  -60.700 DEG C


******************************************************************************



 NODE   VOLTAGE     NODE   VOLTAGE     NODE   VOLTAGE     NODE   VOLTAGE


(  VC+)    5.0000  (  VS-)    5.0000  (N05022)    1.3956 (N05026)    1.2314     

(X_D1.1) 1.600E-06 (X_D1.2)    -.0022 (X_D1.3)    1.2336 




    VOLTAGE SOURCE CURRENTS
    NAME         CURRENT

    V_V2         0.000E+00
    V_V1        -2.002E-05

    TOTAL POWER DISSIPATION   1.00E-04  WATTS


**** 03/18/22 20:36:36 ******* PSpice Lite (March 2016) ******* ID# 10813 ****

 ** Profile: "SCHEMATIC1-tbg"  [ D:\Practicas\E_General\Termometro_Final-PSpiceFiles\SCHEMATIC1\tbg.sim ] 


 ****     INITIAL TRANSIENT SOLUTION       TEMPERATURE =  -60.600 DEG C


******************************************************************************



 NODE   VOLTAGE     NODE   VOLTAGE     NODE   VOLTAGE     NODE   VOLTAGE


(  VC+)    5.0000  (  VS-)    5.0000  (N05022)    1.3956 (N05026)    1.2314     

(X_D1.1) 1.600E-06 (X_D1.2)    -.0022 (X_D1.3)    1.2336 




    VOLTAGE SOURCE CURRENTS
    NAME         CURRENT

    V_V2         0.000E+00
    V_V1        -2.002E-05

    TOTAL POWER DISSIPATION   1.00E-04  WATTS


**** 03/18/22 20:36:36 ******* PSpice Lite (March 2016) ******* ID# 10813 ****

 ** Profile: "SCHEMATIC1-tbg"  [ D:\Practicas\E_General\Termometro_Final-PSpiceFiles\SCHEMATIC1\tbg.sim ] 


 ****     INITIAL TRANSIENT SOLUTION       TEMPERATURE =  -60.500 DEG C


******************************************************************************



 NODE   VOLTAGE     NODE   VOLTAGE     NODE   VOLTAGE     NODE   VOLTAGE


(  VC+)    5.0000  (  VS-)    5.0000  (N05022)    1.3956 (N05026)    1.2314     

(X_D1.1) 1.600E-06 (X_D1.2)    -.0022 (X_D1.3)    1.2336 




    VOLTAGE SOURCE CURRENTS
    NAME         CURRENT

    V_V2         0.000E+00
    V_V1        -2.002E-05

    TOTAL POWER DISSIPATION   1.00E-04  WATTS


**** 03/18/22 20:36:36 ******* PSpice Lite (March 2016) ******* ID# 10813 ****

 ** Profile: "SCHEMATIC1-tbg"  [ D:\Practicas\E_General\Termometro_Final-PSpiceFiles\SCHEMATIC1\tbg.sim ] 


 ****     INITIAL TRANSIENT SOLUTION       TEMPERATURE =  -60.400 DEG C


******************************************************************************



 NODE   VOLTAGE     NODE   VOLTAGE     NODE   VOLTAGE     NODE   VOLTAGE


(  VC+)    5.0000  (  VS-)    5.0000  (N05022)    1.3956 (N05026)    1.2314     

(X_D1.1) 1.600E-06 (X_D1.2)    -.0022 (X_D1.3)    1.2336 




    VOLTAGE SOURCE CURRENTS
    NAME         CURRENT

    V_V2         0.000E+00
    V_V1        -2.002E-05

    TOTAL POWER DISSIPATION   1.00E-04  WATTS


**** 03/18/22 20:36:36 ******* PSpice Lite (March 2016) ******* ID# 10813 ****

 ** Profile: "SCHEMATIC1-tbg"  [ D:\Practicas\E_General\Termometro_Final-PSpiceFiles\SCHEMATIC1\tbg.sim ] 


 ****     INITIAL TRANSIENT SOLUTION       TEMPERATURE =  -60.300 DEG C


******************************************************************************



 NODE   VOLTAGE     NODE   VOLTAGE     NODE   VOLTAGE     NODE   VOLTAGE


(  VC+)    5.0000  (  VS-)    5.0000  (N05022)    1.3956 (N05026)    1.2314     

(X_D1.1) 1.600E-06 (X_D1.2)    -.0022 (X_D1.3)    1.2336 




    VOLTAGE SOURCE CURRENTS
    NAME         CURRENT

    V_V2         0.000E+00
    V_V1        -2.002E-05

    TOTAL POWER DISSIPATION   1.00E-04  WATTS


**** 03/18/22 20:36:36 ******* PSpice Lite (March 2016) ******* ID# 10813 ****

 ** Profile: "SCHEMATIC1-tbg"  [ D:\Practicas\E_General\Termometro_Final-PSpiceFiles\SCHEMATIC1\tbg.sim ] 


 ****     INITIAL TRANSIENT SOLUTION       TEMPERATURE =  -60.200 DEG C


******************************************************************************



 NODE   VOLTAGE     NODE   VOLTAGE     NODE   VOLTAGE     NODE   VOLTAGE


(  VC+)    5.0000  (  VS-)    5.0000  (N05022)    1.3956 (N05026)    1.2314     

(X_D1.1) 1.600E-06 (X_D1.2)    -.0022 (X_D1.3)    1.2336 




    VOLTAGE SOURCE CURRENTS
    NAME         CURRENT

    V_V2         0.000E+00
    V_V1        -2.002E-05

    TOTAL POWER DISSIPATION   1.00E-04  WATTS


**** 03/18/22 20:36:36 ******* PSpice Lite (March 2016) ******* ID# 10813 ****

 ** Profile: "SCHEMATIC1-tbg"  [ D:\Practicas\E_General\Termometro_Final-PSpiceFiles\SCHEMATIC1\tbg.sim ] 


 ****     INITIAL TRANSIENT SOLUTION       TEMPERATURE =  -60.100 DEG C


******************************************************************************



 NODE   VOLTAGE     NODE   VOLTAGE     NODE   VOLTAGE     NODE   VOLTAGE


(  VC+)    5.0000  (  VS-)    5.0000  (N05022)    1.3956 (N05026)    1.2314     

(X_D1.1) 1.600E-06 (X_D1.2)    -.0022 (X_D1.3)    1.2336 




    VOLTAGE SOURCE CURRENTS
    NAME         CURRENT

    V_V2         0.000E+00
    V_V1        -2.002E-05

    TOTAL POWER DISSIPATION   1.00E-04  WATTS


**** 03/18/22 20:36:36 ******* PSpice Lite (March 2016) ******* ID# 10813 ****

 ** Profile: "SCHEMATIC1-tbg"  [ D:\Practicas\E_General\Termometro_Final-PSpiceFiles\SCHEMATIC1\tbg.sim ] 


 ****     INITIAL TRANSIENT SOLUTION       TEMPERATURE =  -60.000 DEG C


******************************************************************************



 NODE   VOLTAGE     NODE   VOLTAGE     NODE   VOLTAGE     NODE   VOLTAGE


(  VC+)    5.0000  (  VS-)    5.0000  (N05022)    1.3956 (N05026)    1.2314     

(X_D1.1) 1.600E-06 (X_D1.2)    -.0022 (X_D1.3)    1.2336 




    VOLTAGE SOURCE CURRENTS
    NAME         CURRENT

    V_V2         0.000E+00
    V_V1        -2.002E-05

    TOTAL POWER DISSIPATION   1.00E-04  WATTS


**** 03/18/22 20:36:36 ******* PSpice Lite (March 2016) ******* ID# 10813 ****

 ** Profile: "SCHEMATIC1-tbg"  [ D:\Practicas\E_General\Termometro_Final-PSpiceFiles\SCHEMATIC1\tbg.sim ] 


 ****     INITIAL TRANSIENT SOLUTION       TEMPERATURE =  -59.900 DEG C


******************************************************************************



 NODE   VOLTAGE     NODE   VOLTAGE     NODE   VOLTAGE     NODE   VOLTAGE


(  VC+)    5.0000  (  VS-)    5.0000  (N05022)    1.3956 (N05026)    1.2314     

(X_D1.1) 1.600E-06 (X_D1.2)    -.0022 (X_D1.3)    1.2336 




    VOLTAGE SOURCE CURRENTS
    NAME         CURRENT

    V_V2         0.000E+00
    V_V1        -2.002E-05

    TOTAL POWER DISSIPATION   1.00E-04  WATTS


**** 03/18/22 20:36:36 ******* PSpice Lite (March 2016) ******* ID# 10813 ****

 ** Profile: "SCHEMATIC1-tbg"  [ D:\Practicas\E_General\Termometro_Final-PSpiceFiles\SCHEMATIC1\tbg.sim ] 


 ****     INITIAL TRANSIENT SOLUTION       TEMPERATURE =  -59.800 DEG C


******************************************************************************



 NODE   VOLTAGE     NODE   VOLTAGE     NODE   VOLTAGE     NODE   VOLTAGE


(  VC+)    5.0000  (  VS-)    5.0000  (N05022)    1.3957 (N05026)    1.2315     

(X_D1.1) 1.600E-06 (X_D1.2)    -.0022 (X_D1.3)    1.2336 




    VOLTAGE SOURCE CURRENTS
    NAME         CURRENT

    V_V2         0.000E+00
    V_V1        -2.002E-05

    TOTAL POWER DISSIPATION   1.00E-04  WATTS


**** 03/18/22 20:36:36 ******* PSpice Lite (March 2016) ******* ID# 10813 ****

 ** Profile: "SCHEMATIC1-tbg"  [ D:\Practicas\E_General\Termometro_Final-PSpiceFiles\SCHEMATIC1\tbg.sim ] 


 ****     INITIAL TRANSIENT SOLUTION       TEMPERATURE =  -59.700 DEG C


******************************************************************************



 NODE   VOLTAGE     NODE   VOLTAGE     NODE   VOLTAGE     NODE   VOLTAGE


(  VC+)    5.0000  (  VS-)    5.0000  (N05022)    1.3957 (N05026)    1.2315     

(X_D1.1) 1.600E-06 (X_D1.2)    -.0022 (X_D1.3)    1.2337 




    VOLTAGE SOURCE CURRENTS
    NAME         CURRENT

    V_V2         0.000E+00
    V_V1        -2.002E-05

    TOTAL POWER DISSIPATION   1.00E-04  WATTS


**** 03/18/22 20:36:36 ******* PSpice Lite (March 2016) ******* ID# 10813 ****

 ** Profile: "SCHEMATIC1-tbg"  [ D:\Practicas\E_General\Termometro_Final-PSpiceFiles\SCHEMATIC1\tbg.sim ] 


 ****     INITIAL TRANSIENT SOLUTION       TEMPERATURE =  -59.600 DEG C


******************************************************************************



 NODE   VOLTAGE     NODE   VOLTAGE     NODE   VOLTAGE     NODE   VOLTAGE


(  VC+)    5.0000  (  VS-)    5.0000  (N05022)    1.3957 (N05026)    1.2315     

(X_D1.1) 1.600E-06 (X_D1.2)    -.0022 (X_D1.3)    1.2337 




    VOLTAGE SOURCE CURRENTS
    NAME         CURRENT

    V_V2         0.000E+00
    V_V1        -2.002E-05

    TOTAL POWER DISSIPATION   1.00E-04  WATTS


**** 03/18/22 20:36:36 ******* PSpice Lite (March 2016) ******* ID# 10813 ****

 ** Profile: "SCHEMATIC1-tbg"  [ D:\Practicas\E_General\Termometro_Final-PSpiceFiles\SCHEMATIC1\tbg.sim ] 


 ****     INITIAL TRANSIENT SOLUTION       TEMPERATURE =  -59.500 DEG C


******************************************************************************



 NODE   VOLTAGE     NODE   VOLTAGE     NODE   VOLTAGE     NODE   VOLTAGE


(  VC+)    5.0000  (  VS-)    5.0000  (N05022)    1.3957 (N05026)    1.2315     

(X_D1.1) 1.600E-06 (X_D1.2)    -.0022 (X_D1.3)    1.2337 




    VOLTAGE SOURCE CURRENTS
    NAME         CURRENT

    V_V2         0.000E+00
    V_V1        -2.002E-05

    TOTAL POWER DISSIPATION   1.00E-04  WATTS


**** 03/18/22 20:36:36 ******* PSpice Lite (March 2016) ******* ID# 10813 ****

 ** Profile: "SCHEMATIC1-tbg"  [ D:\Practicas\E_General\Termometro_Final-PSpiceFiles\SCHEMATIC1\tbg.sim ] 


 ****     INITIAL TRANSIENT SOLUTION       TEMPERATURE =  -59.400 DEG C


******************************************************************************



 NODE   VOLTAGE     NODE   VOLTAGE     NODE   VOLTAGE     NODE   VOLTAGE


(  VC+)    5.0000  (  VS-)    5.0000  (N05022)    1.3957 (N05026)    1.2315     

(X_D1.1) 1.600E-06 (X_D1.2)    -.0022 (X_D1.3)    1.2337 




    VOLTAGE SOURCE CURRENTS
    NAME         CURRENT

    V_V2         0.000E+00
    V_V1        -2.002E-05

    TOTAL POWER DISSIPATION   1.00E-04  WATTS


**** 03/18/22 20:36:36 ******* PSpice Lite (March 2016) ******* ID# 10813 ****

 ** Profile: "SCHEMATIC1-tbg"  [ D:\Practicas\E_General\Termometro_Final-PSpiceFiles\SCHEMATIC1\tbg.sim ] 


 ****     INITIAL TRANSIENT SOLUTION       TEMPERATURE =  -59.300 DEG C


******************************************************************************



 NODE   VOLTAGE     NODE   VOLTAGE     NODE   VOLTAGE     NODE   VOLTAGE


(  VC+)    5.0000  (  VS-)    5.0000  (N05022)    1.3957 (N05026)    1.2315     

(X_D1.1) 1.600E-06 (X_D1.2)    -.0022 (X_D1.3)    1.2337 




    VOLTAGE SOURCE CURRENTS
    NAME         CURRENT

    V_V2         0.000E+00
    V_V1        -2.002E-05

    TOTAL POWER DISSIPATION   1.00E-04  WATTS


**** 03/18/22 20:36:36 ******* PSpice Lite (March 2016) ******* ID# 10813 ****

 ** Profile: "SCHEMATIC1-tbg"  [ D:\Practicas\E_General\Termometro_Final-PSpiceFiles\SCHEMATIC1\tbg.sim ] 


 ****     INITIAL TRANSIENT SOLUTION       TEMPERATURE =  -59.200 DEG C


******************************************************************************



 NODE   VOLTAGE     NODE   VOLTAGE     NODE   VOLTAGE     NODE   VOLTAGE


(  VC+)    5.0000  (  VS-)    5.0000  (N05022)    1.3957 (N05026)    1.2315     

[...]

    V_V2         0.000E+00
    V_V1        -2.001E-05

    TOTAL POWER DISSIPATION   1.00E-04  WATTS


**** 03/18/22 20:36:36 ******* PSpice Lite (March 2016) ******* ID# 10813 ****

 ** Profile: "SCHEMATIC1-tbg"  [ D:\Practicas\E_General\Termometro_Final-PSpiceFiles\SCHEMATIC1\tbg.sim ] 


 ****     INITIAL TRANSIENT SOLUTION       TEMPERATURE =   27.400 DEG C


******************************************************************************



 NODE   VOLTAGE     NODE   VOLTAGE     NODE   VOLTAGE     NODE   VOLTAGE


(  VC+)    5.0000  (  VS-)    5.0000  (N05022)    1.3989 (N05026)    1.2348     

(X_D1.1) 1.597E-06 (X_D1.2)    -.0022 (X_D1.3)    1.2370 




    VOLTAGE SOURCE CURRENTS
    NAME         CURRENT

    V_V2         0.000E+00
    V_V1        -2.001E-05

    TOTAL POWER DISSIPATION   1.00E-04  WATTS


**** 03/18/22 20:36:36 ******* PSpice Lite (March 2016) ******* ID# 10813 ****

 ** Profile: "SCHEMATIC1-tbg"  [ D:\Practicas\E_General\Termometro_Final-PSpiceFiles\SCHEMATIC1\tbg.sim ] 


 ****     INITIAL TRANSIENT SOLUTION       TEMPERATURE =   27.500 DEG C


******************************************************************************



 NODE   VOLTAGE     NODE   VOLTAGE     NODE   VOLTAGE     NODE   VOLTAGE


(  VC+)    5.0000  (  VS-)    5.0000  (N05022)    1.3989 (N05026)    1.2348     

(X_D1.1) 1.597E-06 (X_D1.2)    -.0022 (X_D1.3)    1.2370 




    VOLTAGE SOURCE CURRENTS
    NAME         CURRENT

    V_V2         0.000E+00
    V_V1        -2.001E-05

    TOTAL POWER DISSIPATION   1.00E-04  WATTS


**** 03/18/22 20:36:36 ******* PSpice Lite (March 2016) ******* ID# 10813 ****

 ** Profile: "SCHEMATIC1-tbg"  [ D:\Practicas\E_General\Termometro_Final-PSpiceFiles\SCHEMATIC1\tbg.sim ] 


 ****     INITIAL TRANSIENT SOLUTION       TEMPERATURE =   27.600 DEG C


******************************************************************************



 NODE   VOLTAGE     NODE   VOLTAGE     NODE   VOLTAGE     NODE   VOLTAGE


(  VC+)    5.0000  (  VS-)    5.0000  (N05022)    1.3989 (N05026)    1.2348     

(X_D1.1) 1.597E-06 (X_D1.2)    -.0022 (X_D1.3)    1.2370 




    VOLTAGE SOURCE CURRENTS
    NAME         CURRENT

    V_V2         0.000E+00
    V_V1        -2.001E-05

    TOTAL POWER DISSIPATION   1.00E-04  WATTS


**** 03/18/22 20:36:36 ******* PSpice Lite (March 2016) ******* ID# 10813 ****

 ** Profile: "SCHEMATIC1-tbg"  [ D:\Practicas\E_General\Termometro_Final-PSpiceFiles\SCHEMATIC1\tbg.sim ] 


 ****     INITIAL TRANSIENT SOLUTION       TEMPERATURE =   27.700 DEG C


******************************************************************************



 NODE   VOLTAGE     NODE   VOLTAGE     NODE   VOLTAGE     NODE   VOLTAGE


(  VC+)    5.0000  (  VS-)    5.0000  (N05022)    1.3989 (N05026)    1.2348     

(X_D1.1) 1.597E-06 (X_D1.2)    -.0022 (X_D1.3)    1.2370 




    VOLTAGE SOURCE CURRENTS
    NAME         CURRENT

    V_V2         0.000E+00
    V_V1        -2.001E-05

    TOTAL POWER DISSIPATION   1.00E-04  WATTS


**** 03/18/22 20:36:36 ******* PSpice Lite (March 2016) ******* ID# 10813 ****

 ** Profile: "SCHEMATIC1-tbg"  [ D:\Practicas\E_General\Termometro_Final-PSpiceFiles\SCHEMATIC1\tbg.sim ] 


 ****     INITIAL TRANSIENT SOLUTION       TEMPERATURE =   27.800 DEG C


******************************************************************************



 NODE   VOLTAGE     NODE   VOLTAGE     NODE   VOLTAGE     NODE   VOLTAGE


(  VC+)    5.0000  (  VS-)    5.0000  (N05022)    1.3989 (N05026)    1.2348     

(X_D1.1) 1.597E-06 (X_D1.2)    -.0022 (X_D1.3)    1.2370 




    VOLTAGE SOURCE CURRENTS
    NAME         CURRENT

    V_V2         0.000E+00
    V_V1        -2.001E-05

    TOTAL POWER DISSIPATION   1.00E-04  WATTS


**** 03/18/22 20:36:36 ******* PSpice Lite (March 2016) ******* ID# 10813 ****

 ** Profile: "SCHEMATIC1-tbg"  [ D:\Practicas\E_General\Termometro_Final-PSpiceFiles\SCHEMATIC1\tbg.sim ] 


 ****     INITIAL TRANSIENT SOLUTION       TEMPERATURE =   27.900 DEG C


******************************************************************************



 NODE   VOLTAGE     NODE   VOLTAGE     NODE   VOLTAGE     NODE   VOLTAGE


(  VC+)    5.0000  (  VS-)    5.0000  (N05022)    1.3989 (N05026)    1.2348     

(X_D1.1) 1.597E-06 (X_D1.2)    -.0022 (X_D1.3)    1.2370 




    VOLTAGE SOURCE CURRENTS
    NAME         CURRENT

    V_V2         0.000E+00
    V_V1        -2.001E-05

    TOTAL POWER DISSIPATION   1.00E-04  WATTS


**** 03/18/22 20:36:36 ******* PSpice Lite (March 2016) ******* ID# 10813 ****

 ** Profile: "SCHEMATIC1-tbg"  [ D:\Practicas\E_General\Termometro_Final-PSpiceFiles\SCHEMATIC1\tbg.sim ] 


 ****     INITIAL TRANSIENT SOLUTION       TEMPERATURE =   28.000 DEG C


******************************************************************************



 NODE   VOLTAGE     NODE   VOLTAGE     NODE   VOLTAGE     NODE   VOLTAGE


(  VC+)    5.0000  (  VS-)    5.0000  (N05022)    1.3989 (N05026)    1.2348     

(X_D1.1) 1.597E-06 (X_D1.2)    -.0022 (X_D1.3)    1.2370 




    VOLTAGE SOURCE CURRENTS
    NAME         CURRENT

    V_V2         0.000E+00
    V_V1        -2.001E-05

    TOTAL POWER DISSIPATION   1.00E-04  WATTS


**** 03/18/22 20:36:36 ******* PSpice Lite (March 2016) ******* ID# 10813 ****

 ** Profile: "SCHEMATIC1-tbg"  [ D:\Practicas\E_General\Termometro_Final-PSpiceFiles\SCHEMATIC1\tbg.sim ] 


 ****     INITIAL TRANSIENT SOLUTION       TEMPERATURE =   28.100 DEG C


******************************************************************************



 NODE   VOLTAGE     NODE   VOLTAGE     NODE   VOLTAGE     NODE   VOLTAGE


(  VC+)    5.0000  (  VS-)    5.0000  (N05022)    1.3989 (N05026)    1.2348     

(X_D1.1) 1.597E-06 (X_D1.2)    -.0022 (X_D1.3)    1.2370 




    VOLTAGE SOURCE CURRENTS
    NAME         CURRENT

    V_V2         0.000E+00
    V_V1        -2.001E-05

    TOTAL POWER DISSIPATION   1.00E-04  WATTS


**** 03/18/22 20:36:36 ******* PSpice Lite (March 2016) ******* ID# 10813 ****

 ** Profile: "SCHEMATIC1-tbg"  [ D:\Practicas\E_General\Termometro_Final-PSpiceFiles\SCHEMATIC1\tbg.sim ] 


 ****     INITIAL TRANSIENT SOLUTION       TEMPERATURE =   28.200 DEG C


******************************************************************************



 NODE   VOLTAGE     NODE   VOLTAGE     NODE   VOLTAGE     NODE   VOLTAGE


(  VC+)    5.0000  (  VS-)    5.0000  (N05022)    1.3989 (N05026)    1.2348     

(X_D1.1) 1.597E-06 (X_D1.2)    -.0022 (X_D1.3)    1.2370 




    VOLTAGE SOURCE CURRENTS
    NAME         CURRENT

    V_V2         0.000E+00
    V_V1        -2.001E-05

    TOTAL POWER DISSIPATION   1.00E-04  WATTS


**** 03/18/22 20:36:36 ******* PSpice Lite (March 2016) ******* ID# 10813 ****

 ** Profile: "SCHEMATIC1-tbg"  [ D:\Practicas\E_General\Termometro_Final-PSpiceFiles\SCHEMATIC1\tbg.sim ] 


 ****     INITIAL TRANSIENT SOLUTION       TEMPERATURE =   28.300 DEG C


******************************************************************************



 NODE   VOLTAGE     NODE   VOLTAGE     NODE   VOLTAGE     NODE   VOLTAGE


(  VC+)    5.0000  (  VS-)    5.0000  (N05022)    1.3989 (N05026)    1.2348     

(X_D1.1) 1.597E-06 (X_D1.2)    -.0022 (X_D1.3)    1.2370 




    VOLTAGE SOURCE CURRENTS
    NAME         CURRENT

    V_V2         0.000E+00
    V_V1        -2.001E-05

    TOTAL POWER DISSIPATION   1.00E-04  WATTS


**** 03/18/22 20:36:36 ******* PSpice Lite (March 2016) ******* ID# 10813 ****

 ** Profile: "SCHEMATIC1-tbg"  [ D:\Practicas\E_General\Termometro_Final-PSpiceFiles\SCHEMATIC1\tbg.sim ] 


 ****     INITIAL TRANSIENT SOLUTION       TEMPERATURE =   28.400 DEG C


******************************************************************************



 NODE   VOLTAGE     NODE   VOLTAGE     NODE   VOLTAGE     NODE   VOLTAGE


(  VC+)    5.0000  (  VS-)    5.0000  (N05022)    1.3989 (N05026)    1.2348     

(X_D1.1) 1.597E-06 (X_D1.2)    -.0022 (X_D1.3)    1.2370 




    VOLTAGE SOURCE CURRENTS
    NAME         CURRENT

    V_V2         0.000E+00
    V_V1        -2.001E-05

    TOTAL POWER DISSIPATION   1.00E-04  WATTS


**** 03/18/22 20:36:36 ******* PSpice Lite (March 2016) ******* ID# 10813 ****

 ** Profile: "SCHEMATIC1-tbg"  [ D:\Practicas\E_General\Termometro_Final-PSpiceFiles\SCHEMATIC1\tbg.sim ] 


 ****     INITIAL TRANSIENT SOLUTION       TEMPERATURE =   28.500 DEG C


******************************************************************************



 NODE   VOLTAGE     NODE   VOLTAGE     NODE   VOLTAGE     NODE   VOLTAGE


(  VC+)    5.0000  (  VS-)    5.0000  (N05022)    1.3989 (N05026)    1.2348     

(X_D1.1) 1.597E-06 (X_D1.2)    -.0022 (X_D1.3)    1.2370 




    VOLTAGE SOURCE CURRENTS
    NAME         CURRENT

    V_V2         0.000E+00
    V_V1        -2.001E-05

    TOTAL POWER DISSIPATION   1.00E-04  WATTS


**** 03/18/22 20:36:36 ******* PSpice Lite (March 2016) ******* ID# 10813 ****

 ** Profile: "SCHEMATIC1-tbg"  [ D:\Practicas\E_General\Termometro_Final-PSpiceFiles\SCHEMATIC1\tbg.sim ] 


 ****     INITIAL TRANSIENT SOLUTION       TEMPERATURE =   28.600 DEG C


******************************************************************************



 NODE   VOLTAGE     NODE   VOLTAGE     NODE   VOLTAGE     NODE   VOLTAGE


(  VC+)    5.0000  (  VS-)    5.0000  (N05022)    1.3989 (N05026)    1.2348     

(X_D1.1) 1.597E-06 (X_D1.2)    -.0022 (X_D1.3)    1.2370 




    VOLTAGE SOURCE CURRENTS
    NAME         CURRENT

    V_V2         0.000E+00
    V_V1        -2.001E-05

    TOTAL POWER DISSIPATION   1.00E-04  WATTS


**** 03/18/22 20:36:36 ******* PSpice Lite (March 2016) ******* ID# 10813 ****

 ** Profile: "SCHEMATIC1-tbg"  [ D:\Practicas\E_General\Termometro_Final-PSpiceFiles\SCHEMATIC1\tbg.sim ] 


 ****     INITIAL TRANSIENT SOLUTION       TEMPERATURE =   28.700 DEG C


******************************************************************************



 NODE   VOLTAGE     NODE   VOLTAGE     NODE   VOLTAGE     NODE   VOLTAGE


(  VC+)    5.0000  (  VS-)    5.0000  (N05022)    1.3989 (N05026)    1.2348     

(X_D1.1) 1.597E-06 (X_D1.2)    -.0022 (X_D1.3)    1.2370 




    VOLTAGE SOURCE CURRENTS
    NAME         CURRENT

    V_V2         0.000E+00
    V_V1        -2.001E-05

    TOTAL POWER DISSIPATION   1.00E-04  WATTS


**** 03/18/22 20:36:36 ******* PSpice Lite (March 2016) ******* ID# 10813 ****

 ** Profile: "SCHEMATIC1-tbg"  [ D:\Practicas\E_General\Termometro_Final-PSpiceFiles\SCHEMATIC1\tbg.sim ] 


 ****     INITIAL TRANSIENT SOLUTION       TEMPERATURE =   28.800 DEG C


******************************************************************************



 NODE   VOLTAGE     NODE   VOLTAGE     NODE   VOLTAGE     NODE   VOLTAGE


(  VC+)    5.0000  (  VS-)    5.0000  (N05022)    1.3989 (N05026)    1.2348     

(X_D1.1) 1.597E-06 (X_D1.2)    -.0022 (X_D1.3)    1.2370 




    VOLTAGE SOURCE CURRENTS
    NAME         CURRENT

    V_V2         0.000E+00
    V_V1        -2.001E-05

    TOTAL POWER DISSIPATION   1.00E-04  WATTS


**** 03/18/22 20:36:36 ******* PSpice Lite (March 2016) ******* ID# 10813 ****

 ** Profile: "SCHEMATIC1-tbg"  [ D:\Practicas\E_General\Termometro_Final-PSpiceFiles\SCHEMATIC1\tbg.sim ] 


 ****     INITIAL TRANSIENT SOLUTION       TEMPERATURE =   28.900 DEG C


******************************************************************************



 NODE   VOLTAGE     NODE   VOLTAGE     NODE   VOLTAGE     NODE   VOLTAGE


(  VC+)    5.0000  (  VS-)    5.0000  (N05022)    1.3989 (N05026)    1.2348     

(X_D1.1) 1.597E-06 (X_D1.2)    -.0022 (X_D1.3)    1.2370 




    VOLTAGE SOURCE CURRENTS
    NAME         CURRENT

    V_V2         0.000E+00
    V_V1        -2.001E-05

    TOTAL POWER DISSIPATION   1.00E-04  WATTS


**** 03/18/22 20:36:36 ******* PSpice Lite (March 2016) ******* ID# 10813 ****

 ** Profile: "SCHEMATIC1-tbg"  [ D:\Practicas\E_General\Termometro_Final-PSpiceFiles\SCHEMATIC1\tbg.sim ] 


 ****     INITIAL TRANSIENT SOLUTION       TEMPERATURE =   29.000 DEG C


******************************************************************************



 NODE   VOLTAGE     NODE   VOLTAGE     NODE   VOLTAGE     NODE   VOLTAGE


(  VC+)    5.0000  (  VS-)    5.0000  (N05022)    1.3989 (N05026)    1.2348     

(X_D1.1) 1.597E-06 (X_D1.2)    -.0022 (X_D1.3)    1.2370 




    VOLTAGE SOURCE CURRENTS
    NAME         CURRENT

    V_V2         0.000E+00
    V_V1        -2.001E-05

    TOTAL POWER DISSIPATION   1.00E-04  WATTS


**** 03/18/22 20:36:36 ******* PSpice Lite (March 2016) ******* ID# 10813 ****

 ** Profile: "SCHEMATIC1-tbg"  [ D:\Practicas\E_General\Termometro_Final-PSpiceFiles\SCHEMATIC1\tbg.sim ] 


 ****     INITIAL TRANSIENT SOLUTION       TEMPERATURE =   29.100 DEG C


******************************************************************************



 NODE   VOLTAGE     NODE   VOLTAGE     NODE   VOLTAGE     NODE   VOLTAGE


(  VC+)    5.0000  (  VS-)    5.0000  (N05022)    1.3989 (N05026)    1.2348     

(X_D1.1) 1.597E-06 (X_D1.2)    -.0022 (X_D1.3)    1.2370 




    VOLTAGE SOURCE CURRENTS
    NAME         CURRENT

    V_V2         0.000E+00
    V_V1        -2.001E-05

    TOTAL POWER DISSIPATION   1.00E-04  WATTS


**** 03/18/22 20:36:36 ******* PSpice Lite (March 2016) ******* ID# 10813 ****

 ** Profile: "SCHEMATIC1-tbg"  [ D:\Practicas\E_General\Termometro_Final-PSpiceFiles\SCHEMATIC1\tbg.sim ] 


 ****     INITIAL TRANSIENT SOLUTION       TEMPERATURE =   29.200 DEG C


******************************************************************************



 NODE   VOLTAGE     NODE   VOLTAGE     NODE   VOLTAGE     NODE   VOLTAGE


(  VC+)    5.0000  (  VS-)    5.0000  (N05022)    1.3989 (N05026)    1.2348     

(X_D1.1) 1.597E-06 (X_D1.2)    -.0022 (X_D1.3)    1.2370 




    VOLTAGE SOURCE CURRENTS
    NAME         CURRENT

    V_V2         0.000E+00
    V_V1        -2.001E-05

    TOTAL POWER DISSIPATION   1.00E-04  WATTS


**** 03/18/22 20:36:36 ******* PSpice Lite (March 2016) ******* ID# 10813 ****

 ** Profile: "SCHEMATIC1-tbg"  [ D:\Practicas\E_General\Termometro_Final-PSpiceFiles\SCHEMATIC1\tbg.sim ] 


 ****     INITIAL TRANSIENT SOLUTION       TEMPERATURE =   29.300 DEG C


******************************************************************************



 NODE   VOLTAGE     NODE   VOLTAGE     NODE   VOLTAGE     NODE   VOLTAGE


(  VC+)    5.0000  (  VS-)    5.0000  (N05022)    1.3989 (N05026)    1.2348     

(X_D1.1) 1.597E-06 (X_D1.2)    -.0022 (X_D1.3)    1.2370 




    VOLTAGE SOURCE CURRENTS
    NAME         CURRENT

    V_V2         0.000E+00
    V_V1        -2.001E-05

    TOTAL POWER DISSIPATION   1.00E-04  WATTS


**** 03/18/22 20:36:36 ******* PSpice Lite (March 2016) ******* ID# 10813 ****

 ** Profile: "SCHEMATIC1-tbg"  [ D:\Practicas\E_General\Termometro_Final-PSpiceFiles\SCHEMATIC1\tbg.sim ] 


 ****     INITIAL TRANSIENT SOLUTION       TEMPERATURE =   29.400 DEG C


******************************************************************************



 NODE   VOLTAGE     NODE   VOLTAGE     NODE   VOLTAGE     NODE   VOLTAGE


(  VC+)    5.0000  (  VS-)    5.0000  (N05022)    1.3989 (N05026)    1.2348     

(X_D1.1) 1.597E-06 (X_D1.2)    -.0022 (X_D1.3)    1.2370 




    VOLTAGE SOURCE CURRENTS
    NAME         CURRENT

    V_V2         0.000E+00
    V_V1        -2.001E-05

    TOTAL POWER DISSIPATION   1.00E-04  WATTS


**** 03/18/22 20:36:36 ******* PSpice Lite (March 2016) ******* ID# 10813 ****

 ** Profile: "SCHEMATIC1-tbg"  [ D:\Practicas\E_General\Termometro_Final-PSpiceFiles\SCHEMATIC1\tbg.sim ] 


 ****     INITIAL TRANSIENT SOLUTION       TEMPERATURE =   29.500 DEG C


******************************************************************************



 NODE   VOLTAGE     NODE   VOLTAGE     NODE   VOLTAGE     NODE   VOLTAGE


(  VC+)    5.0000  (  VS-)    5.0000  (N05022)    1.3989 (N05026)    1.2348     

(X_D1.1) 1.597E-06 (X_D1.2)    -.0022 (X_D1.3)    1.2370 




    VOLTAGE SOURCE CURRENTS
    NAME         CURRENT

    V_V2         0.000E+00
    V_V1        -2.001E-05

    TOTAL POWER DISSIPATION   1.00E-04  WATTS


**** 03/18/22 20:36:36 ******* PSpice Lite (March 2016) ******* ID# 10813 ****

 ** Profile: "SCHEMATIC1-tbg"  [ D:\Practicas\E_General\Termometro_Final-PSpiceFiles\SCHEMATIC1\tbg.sim ] 


 ****     INITIAL TRANSIENT SOLUTION       TEMPERATURE =   29.600 DEG C


******************************************************************************



 NODE   VOLTAGE     NODE   VOLTAGE     NODE   VOLTAGE     NODE   VOLTAGE


(  VC+)    5.0000  (  VS-)    5.0000  (N05022)    1.3989 (N05026)    1.2348     

(X_D1.1) 1.597E-06 (X_D1.2)    -.0022 (X_D1.3)    1.2370 




    VOLTAGE SOURCE CURRENTS
    NAME         CURRENT

    V_V2         0.000E+00
    V_V1        -2.001E-05

    TOTAL POWER DISSIPATION   1.00E-04  WATTS


**** 03/18/22 20:36:36 ******* PSpice Lite (March 2016) ******* ID# 10813 ****

 ** Profile: "SCHEMATIC1-tbg"  [ D:\Practicas\E_General\Termometro_Final-PSpiceFiles\SCHEMATIC1\tbg.sim ] 


 ****     INITIAL TRANSIENT SOLUTION       TEMPERATURE =   29.700 DEG C


******************************************************************************



 NODE   VOLTAGE     NODE   VOLTAGE     NODE   VOLTAGE     NODE   VOLTAGE


(  VC+)    5.0000  (  VS-)    5.0000  (N05022)    1.3989 (N05026)    1.2348     

(X_D1.1) 1.597E-06 (X_D1.2)    -.0022 (X_D1.3)    1.2370 




    VOLTAGE SOURCE CURRENTS
    NAME         CURRENT

    V_V2         0.000E+00
    V_V1        -2.001E-05

    TOTAL POWER DISSIPATION   1.00E-04  WATTS


**** 03/18/22 20:36:36 ******* PSpice Lite (March 2016) ******* ID# 10813 ****

 ** Profile: "SCHEMATIC1-tbg"  [ D:\Practicas\E_General\Termometro_Final-PSpiceFiles\SCHEMATIC1\tbg.sim ] 


 ****     INITIAL TRANSIENT SOLUTION       TEMPERATURE =   29.800 DEG C


******************************************************************************



 NODE   VOLTAGE     NODE   VOLTAGE     NODE   VOLTAGE     NODE   VOLTAGE


(  VC+)    5.0000  (  VS-)    5.0000  (N05022)    1.3989 (N05026)    1.2348     

(X_D1.1) 1.597E-06 (X_D1.2)    -.0022 (X_D1.3)    1.2370 




    VOLTAGE SOURCE CURRENTS
    NAME         CURRENT

    V_V2         0.000E+00
    V_V1        -2.001E-05

    TOTAL POWER DISSIPATION   1.00E-04  WATTS


**** 03/18/22 20:36:36 ******* PSpice Lite (March 2016) ******* ID# 10813 ****

 ** Profile: "SCHEMATIC1-tbg"  [ D:\Practicas\E_General\Termometro_Final-PSpiceFiles\SCHEMATIC1\tbg.sim ] 


 ****     INITIAL TRANSIENT SOLUTION       TEMPERATURE =   29.900 DEG C


******************************************************************************



 NODE   VOLTAGE     NODE   VOLTAGE     NODE   VOLTAGE     NODE   VOLTAGE


(  VC+)    5.0000  (  VS-)    5.0000  (N05022)    1.3989 (N05026)    1.2348     

(X_D1.1) 1.597E-06 (X_D1.2)    -.0022 (X_D1.3)    1.2370 




    VOLTAGE SOURCE CURRENTS
    NAME         CURRENT

    V_V2         0.000E+00
    V_V1        -2.001E-05

    TOTAL POWER DISSIPATION   1.00E-04  WATTS


**** 03/18/22 20:36:36 ******* PSpice Lite (March 2016) ******* ID# 10813 ****

 ** Profile: "SCHEMATIC1-tbg"  [ D:\Practicas\E_General\Termometro_Final-PSpiceFiles\SCHEMATIC1\tbg.sim ] 


 ****     INITIAL TRANSIENT SOLUTION       TEMPERATURE =   30.000 DEG C


******************************************************************************



 NODE   VOLTAGE     NODE   VOLTAGE     NODE   VOLTAGE     NODE   VOLTAGE


(  VC+)    5.0000  (  VS-)    5.0000  (N05022)    1.3989 (N05026)    1.2348     

(X_D1.1) 1.597E-06 (X_D1.2)    -.0022 (X_D1.3)    1.2370 




    VOLTAGE SOURCE CURRENTS
    NAME         CURRENT

    V_V2         0.000E+00
    V_V1        -2.001E-05

    TOTAL POWER DISSIPATION   1.00E-04  WATTS



          JOB CONCLUDED

**** 03/18/22 20:36:36 ******* PSpice Lite (March 2016) ******* ID# 10813 ****

 ** Profile: "SCHEMATIC1-tbg"  [ D:\Practicas\E_General\Termometro_Final-PSpiceFiles\SCHEMATIC1\tbg.sim ] 


 ****     JOB STATISTICS SUMMARY


******************************************************************************



  Total job time (using Solver 1)   =        3.83
