
**** 03/09/22 11:37:06 ******* PSpice Lite (March 2016) ******* ID# 10813 ****

 ** Profile: "SCHEMATIC1-sim"  [ D:\Practicas\E_General\Termometro-PSpiceFiles\SCHEMATIC1\sim.sim ] 


 ****     CIRCUIT DESCRIPTION


******************************************************************************




** Creating circuit file "sim.cir" 
** WARNING: THIS AUTOMATICALLY GENERATED FILE MAY BE OVERWRITTEN BY SUBSEQUENT SIMULATIONS

*Libraries: 
* Profile Libraries :
* Local Libraries :
* From [PSPICE NETLIST] section of C:\SPB_DATA\cdssetup\OrCAD_PSpice\17.2.0\PSpice.ini file:
.lib "nomd.lib" 

*Analysis directives: 
.DC LIN V_V1 700 mV 700 mV 0 
-----------------$
ERROR(ORPSIM-16152): Invalid number: Error while converting token 'mV' to double value. Token can be a constant or expression
.TEMP -10 -5 0 5 10 15 20 25 30
.OPTIONS ADVCONV
.PROBE64 V(alias(*)) I(alias(*)) W(alias(*)) D(alias(*)) NOISE(alias(*)) 
.INC "..\SCHEMATIC1.net" 



**** INCLUDING SCHEMATIC1.net ****
* source TERMOMETRO
X_U1A         N00331 N00310 VCC VSS N00296 LM358
Q_Q1         VCC N00296 N00306 Q2N3904
R_R1         N00310 N00306  1k TC=0,0 
D_D1         N00310 0 D1N4148 
V_V1         N00331 0 0
V_V2         VCC 0 5
V_V3         0 VSS 5

**** RESUMING sim.cir ****
.END
