
**** 03/09/22 11:51:53 ******* PSpice Lite (March 2016) ******* ID# 10813 ****

 ** Profile: "SCHEMATIC1-sim"  [ D:\Practicas\E_General\Termometro-PSpiceFiles\SCHEMATIC1\sim.sim ] 


 ****     CIRCUIT DESCRIPTION


******************************************************************************




** Creating circuit file "sim.cir" 
** WARNING: THIS AUTOMATICALLY GENERATED FILE MAY BE OVERWRITTEN BY SUBSEQUENT SIMULATIONS

*Libraries: 
* Profile Libraries :
* Local Libraries :
* From [PSPICE NETLIST] section of C:\SPB_DATA\cdssetup\OrCAD_PSpice\17.2.0\PSpice.ini file:
.lib "nomd.lib" 

*Analysis directives: 
.DC LIN V_V1 1 1 1 
.TEMP -10 -5 0 5 10 15 20 25 30
.OPTIONS ADVCONV
.PROBE64 V(alias(*)) I(alias(*)) W(alias(*)) D(alias(*)) NOISE(alias(*)) 
.INC "..\SCHEMATIC1.net" 



**** INCLUDING SCHEMATIC1.net ****
* source TERMOMETRO
X_U1A         N00331 N00310 VCC VSS N00296 LM358
Q_Q1         VCC N00296 N00306 Q2N3904
R_R1         N00310 N00306  1k TC=0,0 
D_D1         N00310 0 D1N4148 
V_V1         N00331 0 0
V_V2         VCC 0 5
V_V3         0 VSS 5
Q_Q2         VCC N00951 N00965 Q2N3904
X_U1B         N01801 N00957 VCC VSS N00951 LM358
V_V4         N01805 0 0
R_R2         N00957 N00965  1k TC=0,0 
D_D2         N00957 0 D1N4148 
R_R3         N01801 N01805  1k TC=0,0 
D_D3         N01801 0 D1N4148 

**** RESUMING sim.cir ****
.END

**** 03/09/22 11:51:53 ******* PSpice Lite (March 2016) ******* ID# 10813 ****

 ** Profile: "SCHEMATIC1-sim"  [ D:\Practicas\E_General\Termometro-PSpiceFiles\SCHEMATIC1\sim.sim ] 


 ****     Diode MODEL PARAMETERS


******************************************************************************




               D1N4148         X_U1A.x_lm358.dx 
          IS    2.682000E-09  800.000000E-18 
           N    1.836                        
         ISR    1.565000E-09                 
         IKF     .04417                      
          BV  100                            
         IBV  100.000000E-06                 
          RS     .5664          1            
          TT   11.540000E-09                 
         CJO    4.000000E-12                 
          VJ     .5                          
           M     .3333                       


               X_U1A.x_lm358.dy 
          IS  800.000000E-18 
          RS    1.000000E-03 
         CJO   10.000000E-12 


               X_U1B.x_lm358.dx 
          IS  800.000000E-18 
          RS    1            


               X_U1B.x_lm358.dy 
          IS  800.000000E-18 
          RS    1.000000E-03 
         CJO   10.000000E-12 


**** 03/09/22 11:51:53 ******* PSpice Lite (March 2016) ******* ID# 10813 ****

 ** Profile: "SCHEMATIC1-sim"  [ D:\Practicas\E_General\Termometro-PSpiceFiles\SCHEMATIC1\sim.sim ] 


 ****     BJT MODEL PARAMETERS


******************************************************************************




               Q2N3904         X_U1A.x_lm358.qx 
               NPN             PNP             
       LEVEL    1               1            
          IS    6.734000E-15  800.000000E-18 
          BF  416.4           166.7          
          NF    1               1            
         VAF   74.03                         
         IKF     .06678                      
         ISE    6.734000E-15                 
          NE    1.259                        
          BR     .7371          1            
          NR    1               1            
         ISS    0               0            
          RB   10                            
          RE    0               0            
          RC    1               0            
         CJE    4.493000E-12    0            
         VJE     .75             .75         
         MJE     .2593                       
         CJC    3.638000E-12    0            
         VJC     .75             .75         
         MJC     .3085           .33         
        XCJC    1               1            
         CJS    0               0            
         VJS     .75             .75         
          TF  301.200000E-12                 
         XTF    2                            
         VTF    4                            
         ITF     .4                          
          TR  239.500000E-09                 
         XTB    1.5                          
          KF    0               0            
          AF    1               1            
          CN    2.42            2.2          
           D     .87             .52         


               X_U1B.x_lm358.qx 
               PNP             
       LEVEL    1            
          IS  800.000000E-18 
          BF  166.7          
          NF    1            
          BR    1            
          NR    1            
         ISS    0            
          RE    0            
          RC    0            
         CJE    0            
         VJE     .75         
         CJC    0            
         VJC     .75         
         MJC     .33         
        XCJC    1            
         CJS    0            
         VJS     .75         
          KF    0            
          AF    1            
          CN    2.2          
           D     .52         


**** 03/09/22 11:51:53 ******* PSpice Lite (March 2016) ******* ID# 10813 ****

 ** Profile: "SCHEMATIC1-sim"  [ D:\Practicas\E_General\Termometro-PSpiceFiles\SCHEMATIC1\sim.sim ] 


 ****     Current Controlled Switch MODEL PARAMETERS


******************************************************************************




               X_U1A.x_lm358.sw2 
         RON    1            
        ROFF   10.000000E+06 
         ION    0            
        IOFF   -1.000000E-06 


               X_U1A.x_lm358.sw1 
         RON    1            
        ROFF   10.000000E+06 
         ION   -1.000000E-06 
        IOFF    0            


               X_U1A.x_lm358.sw3 
         RON    1            
        ROFF   10.000000E+06 
         ION   -1.000000E-06 
        IOFF    0            


               X_U1A.x_lm358.sw4 
         RON    1            
        ROFF   10.000000E+06 
         ION    0            
        IOFF   -1.000000E-06 


               X_U1B.x_lm358.sw2 
         RON    1            
        ROFF   10.000000E+06 
         ION    0            
        IOFF   -1.000000E-06 


               X_U1B.x_lm358.sw1 
         RON    1            
        ROFF   10.000000E+06 
         ION   -1.000000E-06 
        IOFF    0            


               X_U1B.x_lm358.sw3 
         RON    1            
        ROFF   10.000000E+06 
         ION   -1.000000E-06 
        IOFF    0            


               X_U1B.x_lm358.sw4 
         RON    1            
        ROFF   10.000000E+06 
         ION    0            
        IOFF   -1.000000E-06 


**** 03/09/22 11:51:53 ******* PSpice Lite (March 2016) ******* ID# 10813 ****

 ** Profile: "SCHEMATIC1-sim"  [ D:\Practicas\E_General\Termometro-PSpiceFiles\SCHEMATIC1\sim.sim ] 


 ****     TEMPERATURE-ADJUSTED VALUES      TEMPERATURE =  -10.000 DEG C


******************************************************************************




 **** DIODE MODEL PARAMETERS

                   D1N4148    X_U1A.x_lm358.dy
                                             X_U1A.x_lm358.dx

         IS        8.086E-11      1.291E-18      1.291E-18  
         VJ        5.942E-01      1.033E+00      1.033E+00  
        CJO        3.729E-12      9.763E-12      0.000E+00  
         RS        5.664E-01      1.000E-03      1.000E+00  
        IKF        4.417E-02      0.000E+00      0.000E+00  
         BV        1.000E+02  

               X_U1B.x_lm358.dy
                              X_U1B.x_lm358.dx

         IS        1.291E-18      1.291E-18  
         VJ        1.033E+00      1.033E+00  
        CJO        9.763E-12      0.000E+00  
         RS        1.000E-03      1.000E+00  
        IKF        0.000E+00      0.000E+00  
         BV                   


 **** BJT MODEL PARAMETERS

                   Q2N3904    X_U1A.x_lm358.qx
                                             X_U1B.x_lm358.qx

         BF        3.418E+02      1.667E+02      1.667E+02  
        ISE        4.969E-17      0.000E+00      0.000E+00  
        VJE        8.134E-01      8.134E-01      8.134E-01  
        CJE        4.377E-12      0.000E+00      0.000E+00  
         RE        0.000E+00      0.000E+00      0.000E+00  
         RB        1.000E+01      0.000E+00      0.000E+00  
         BR        6.051E-01      1.000E+00      1.000E+00  
        ISC        0.000E+00      0.000E+00      0.000E+00  
        VJC        8.134E-01      8.134E-01      8.134E-01  
        CJC        3.527E-12      0.000E+00      0.000E+00  
         RC        1.000E+00      0.000E+00      0.000E+00  
        RBM        1.000E+01      0.000E+00      0.000E+00  
         IS        1.087E-17      1.291E-18      1.291E-18  
        ISS        0.000E+00      0.000E+00      0.000E+00  
        VJS        8.134E-01      8.134E-01      8.134E-01  
        CJS        0.000E+00      0.000E+00      0.000E+00  
      GAMMA        1.000E-11      1.000E-11      1.000E-11  
        RCO        0.000E+00      0.000E+00      0.000E+00  
         VO        1.000E+01      1.000E+01      1.000E+01  


**** 03/09/22 11:51:53 ******* PSpice Lite (March 2016) ******* ID# 10813 ****

 ** Profile: "SCHEMATIC1-sim"  [ D:\Practicas\E_General\Termometro-PSpiceFiles\SCHEMATIC1\sim.sim ] 


 ****     TEMPERATURE-ADJUSTED VALUES      TEMPERATURE =   -5.000 DEG C


******************************************************************************




 **** DIODE MODEL PARAMETERS

                   D1N4148    X_U1A.x_lm358.dy
                                             X_U1A.x_lm358.dx

         IS        1.371E-10      3.404E-18      3.404E-18  
         VJ        5.816E-01      1.028E+00      1.028E+00  
        CJO        3.765E-12      9.794E-12      0.000E+00  
         RS        5.664E-01      1.000E-03      1.000E+00  
        IKF        4.417E-02      0.000E+00      0.000E+00  
         BV        1.000E+02  

               X_U1B.x_lm358.dy
                              X_U1B.x_lm358.dx

         IS        3.404E-18      3.404E-18  
         VJ        1.028E+00      1.028E+00  
        CJO        9.794E-12      0.000E+00  
         RS        1.000E-03      1.000E+00  
        IKF        0.000E+00      0.000E+00  
         BV                   


 **** BJT MODEL PARAMETERS

                   Q2N3904    X_U1A.x_lm358.qx
                                             X_U1B.x_lm358.qx

         BF        3.516E+02      1.667E+02      1.667E+02  
        ISE        1.043E-16      0.000E+00      0.000E+00  
        VJE        8.050E-01      8.050E-01      8.050E-01  
        CJE        4.393E-12      0.000E+00      0.000E+00  
         RE        0.000E+00      0.000E+00      0.000E+00  
         RB        1.000E+01      0.000E+00      0.000E+00  
         BR        6.224E-01      1.000E+00      1.000E+00  
        ISC        0.000E+00      0.000E+00      0.000E+00  
        VJC        8.050E-01      8.050E-01      8.050E-01  
        CJC        3.541E-12      0.000E+00      0.000E+00  
         RC        1.000E+00      0.000E+00      0.000E+00  
        RBM        1.000E+01      0.000E+00      0.000E+00  
         IS        2.865E-17      3.404E-18      3.404E-18  
        ISS        0.000E+00      0.000E+00      0.000E+00  
        VJS        8.050E-01      8.050E-01      8.050E-01  
        CJS        0.000E+00      0.000E+00      0.000E+00  
      GAMMA        1.000E-11      1.000E-11      1.000E-11  
        RCO        0.000E+00      0.000E+00      0.000E+00  
         VO        1.000E+01      1.000E+01      1.000E+01  


**** 03/09/22 11:51:53 ******* PSpice Lite (March 2016) ******* ID# 10813 ****

 ** Profile: "SCHEMATIC1-sim"  [ D:\Practicas\E_General\Termometro-PSpiceFiles\SCHEMATIC1\sim.sim ] 


 ****     TEMPERATURE-ADJUSTED VALUES      TEMPERATURE =    0.000 DEG C


******************************************************************************




 **** DIODE MODEL PARAMETERS

                   D1N4148    X_U1A.x_lm358.dy
                                             X_U1A.x_lm358.dx

         IS        2.281E-10      8.668E-18      8.668E-18  
         VJ        5.690E-01      1.024E+00      1.024E+00  
        CJO        3.802E-12      9.826E-12      0.000E+00  
         RS        5.664E-01      1.000E-03      1.000E+00  
        IKF        4.417E-02      0.000E+00      0.000E+00  
         BV        1.000E+02  

               X_U1B.x_lm358.dy
                              X_U1B.x_lm358.dx

         IS        8.668E-18      8.668E-18  
         VJ        1.024E+00      1.024E+00  
        CJO        9.826E-12      0.000E+00  
         RS        1.000E-03      1.000E+00  
        IKF        0.000E+00      0.000E+00  
         BV                   


 **** BJT MODEL PARAMETERS

                   Q2N3904    X_U1A.x_lm358.qx
                                             X_U1B.x_lm358.qx

         BF        3.615E+02      1.667E+02      1.667E+02  
        ISE        2.132E-16      0.000E+00      0.000E+00  
        VJE        7.965E-01      7.965E-01      7.965E-01  
        CJE        4.408E-12      0.000E+00      0.000E+00  
         RE        0.000E+00      0.000E+00      0.000E+00  
         RB        1.000E+01      0.000E+00      0.000E+00  
         BR        6.399E-01      1.000E+00      1.000E+00  
        ISC        0.000E+00      0.000E+00      0.000E+00  
        VJC        7.965E-01      7.965E-01      7.965E-01  
        CJC        3.556E-12      0.000E+00      0.000E+00  
         RC        1.000E+00      0.000E+00      0.000E+00  
        RBM        1.000E+01      0.000E+00      0.000E+00  
         IS        7.297E-17      8.668E-18      8.668E-18  
        ISS        0.000E+00      0.000E+00      0.000E+00  
        VJS        7.965E-01      7.965E-01      7.965E-01  
        CJS        0.000E+00      0.000E+00      0.000E+00  
      GAMMA        1.000E-11      1.000E-11      1.000E-11  
        RCO        0.000E+00      0.000E+00      0.000E+00  
         VO        1.000E+01      1.000E+01      1.000E+01  


**** 03/09/22 11:51:53 ******* PSpice Lite (March 2016) ******* ID# 10813 ****

 ** Profile: "SCHEMATIC1-sim"  [ D:\Practicas\E_General\Termometro-PSpiceFiles\SCHEMATIC1\sim.sim ] 


 ****     TEMPERATURE-ADJUSTED VALUES      TEMPERATURE =    5.000 DEG C


******************************************************************************




 **** DIODE MODEL PARAMETERS

                   D1N4148    X_U1A.x_lm358.dy
                                             X_U1A.x_lm358.dx

         IS        3.728E-10      2.137E-17      2.137E-17  
         VJ        5.563E-01      1.020E+00      1.020E+00  
        CJO        3.838E-12      9.858E-12      0.000E+00  
         RS        5.664E-01      1.000E-03      1.000E+00  
        IKF        4.417E-02      0.000E+00      0.000E+00  
         BV        1.000E+02  

               X_U1B.x_lm358.dy
                              X_U1B.x_lm358.dx

         IS        2.137E-17      2.137E-17  
         VJ        1.020E+00      1.020E+00  
        CJO        9.858E-12      0.000E+00  
         RS        1.000E-03      1.000E+00  
        IKF        0.000E+00      0.000E+00  
         BV                   


 **** BJT MODEL PARAMETERS

                   Q2N3904    X_U1A.x_lm358.qx
                                             X_U1B.x_lm358.qx

         BF        3.715E+02      1.667E+02      1.667E+02  
        ISE        4.248E-16      0.000E+00      0.000E+00  
        VJE        7.880E-01      7.880E-01      7.880E-01  
        CJE        4.424E-12      0.000E+00      0.000E+00  
         RE        0.000E+00      0.000E+00      0.000E+00  
         RB        1.000E+01      0.000E+00      0.000E+00  
         BR        6.576E-01      1.000E+00      1.000E+00  
        ISC        0.000E+00      0.000E+00      0.000E+00  
        VJC        7.880E-01      7.880E-01      7.880E-01  
        CJC        3.571E-12      0.000E+00      0.000E+00  
         RC        1.000E+00      0.000E+00      0.000E+00  
        RBM        1.000E+01      0.000E+00      0.000E+00  
         IS        1.799E-16      2.137E-17      2.137E-17  
        ISS        0.000E+00      0.000E+00      0.000E+00  
        VJS        7.880E-01      7.880E-01      7.880E-01  
        CJS        0.000E+00      0.000E+00      0.000E+00  
      GAMMA        1.000E-11      1.000E-11      1.000E-11  
        RCO        0.000E+00      0.000E+00      0.000E+00  
         VO        1.000E+01      1.000E+01      1.000E+01  


**** 03/09/22 11:51:53 ******* PSpice Lite (March 2016) ******* ID# 10813 ****

 ** Profile: "SCHEMATIC1-sim"  [ D:\Practicas\E_General\Termometro-PSpiceFiles\SCHEMATIC1\sim.sim ] 


 ****     TEMPERATURE-ADJUSTED VALUES      TEMPERATURE =   10.000 DEG C


******************************************************************************




 **** DIODE MODEL PARAMETERS

                   D1N4148    X_U1A.x_lm358.dy
                                             X_U1A.x_lm358.dx

         IS        5.992E-10      5.106E-17      5.106E-17  
         VJ        5.436E-01      1.015E+00      1.015E+00  
        CJO        3.875E-12      9.890E-12      0.000E+00  
         RS        5.664E-01      1.000E-03      1.000E+00  
        IKF        4.417E-02      0.000E+00      0.000E+00  
         BV        1.000E+02  

               X_U1B.x_lm358.dy
                              X_U1B.x_lm358.dx

         IS        5.106E-17      5.106E-17  
         VJ        1.015E+00      1.015E+00  
        CJO        9.890E-12      0.000E+00  
         RS        1.000E-03      1.000E+00  
        IKF        0.000E+00      0.000E+00  
         BV                   


 **** BJT MODEL PARAMETERS

                   Q2N3904    X_U1A.x_lm358.qx
                                             X_U1B.x_lm358.qx

         BF        3.815E+02      1.667E+02      1.667E+02  
        ISE        8.262E-16      0.000E+00      0.000E+00  
        VJE        7.794E-01      7.794E-01      7.794E-01  
        CJE        4.439E-12      0.000E+00      0.000E+00  
         RE        0.000E+00      0.000E+00      0.000E+00  
         RB        1.000E+01      0.000E+00      0.000E+00  
         BR        6.754E-01      1.000E+00      1.000E+00  
        ISC        0.000E+00      0.000E+00      0.000E+00  
        VJC        7.794E-01      7.794E-01      7.794E-01  
        CJC        3.586E-12      0.000E+00      0.000E+00  
         RC        1.000E+00      0.000E+00      0.000E+00  
        RBM        1.000E+01      0.000E+00      0.000E+00  
         IS        4.298E-16      5.106E-17      5.106E-17  
        ISS        0.000E+00      0.000E+00      0.000E+00  
        VJS        7.794E-01      7.794E-01      7.794E-01  
        CJS        0.000E+00      0.000E+00      0.000E+00  
      GAMMA        1.000E-11      1.000E-11      1.000E-11  
        RCO        0.000E+00      0.000E+00      0.000E+00  
         VO        1.000E+01      1.000E+01      1.000E+01  


**** 03/09/22 11:51:53 ******* PSpice Lite (March 2016) ******* ID# 10813 ****

 ** Profile: "SCHEMATIC1-sim"  [ D:\Practicas\E_General\Termometro-PSpiceFiles\SCHEMATIC1\sim.sim ] 


 ****     TEMPERATURE-ADJUSTED VALUES      TEMPERATURE =   15.000 DEG C


******************************************************************************




 **** DIODE MODEL PARAMETERS

                   D1N4148    X_U1A.x_lm358.dy
                                             X_U1A.x_lm358.dx

         IS        9.479E-10      1.185E-16      1.185E-16  
         VJ        5.308E-01      1.011E+00      1.011E+00  
        CJO        3.911E-12      9.922E-12      0.000E+00  
         RS        5.664E-01      1.000E-03      1.000E+00  
        IKF        4.417E-02      0.000E+00      0.000E+00  
         BV        1.000E+02  

               X_U1B.x_lm358.dy
                              X_U1B.x_lm358.dx

         IS        1.185E-16      1.185E-16  
         VJ        1.011E+00      1.011E+00  
        CJO        9.922E-12      0.000E+00  
         RS        1.000E-03      1.000E+00  
        IKF        0.000E+00      0.000E+00  
         BV                   


 **** BJT MODEL PARAMETERS

                   Q2N3904    X_U1A.x_lm358.qx
                                             X_U1B.x_lm358.qx

         BF        3.917E+02      1.667E+02      1.667E+02  
        ISE        1.571E-15      0.000E+00      0.000E+00  
        VJE        7.708E-01      7.708E-01      7.708E-01  
        CJE        4.455E-12      0.000E+00      0.000E+00  
         RE        0.000E+00      0.000E+00      0.000E+00  
         RB        1.000E+01      0.000E+00      0.000E+00  
         BR        6.933E-01      1.000E+00      1.000E+00  
        ISC        0.000E+00      0.000E+00      0.000E+00  
        VJC        7.708E-01      7.708E-01      7.708E-01  
        CJC        3.601E-12      0.000E+00      0.000E+00  
         RC        1.000E+00      0.000E+00      0.000E+00  
        RBM        1.000E+01      0.000E+00      0.000E+00  
         IS        9.975E-16      1.185E-16      1.185E-16  
        ISS        0.000E+00      0.000E+00      0.000E+00  
        VJS        7.708E-01      7.708E-01      7.708E-01  
        CJS        0.000E+00      0.000E+00      0.000E+00  
      GAMMA        1.000E-11      1.000E-11      1.000E-11  
        RCO        0.000E+00      0.000E+00      0.000E+00  
         VO        1.000E+01      1.000E+01      1.000E+01  


**** 03/09/22 11:51:53 ******* PSpice Lite (March 2016) ******* ID# 10813 ****

 ** Profile: "SCHEMATIC1-sim"  [ D:\Practicas\E_General\Termometro-PSpiceFiles\SCHEMATIC1\sim.sim ] 


 ****     TEMPERATURE-ADJUSTED VALUES      TEMPERATURE =   20.000 DEG C


******************************************************************************




 **** DIODE MODEL PARAMETERS

                   D1N4148    X_U1A.x_lm358.dy
                                             X_U1A.x_lm358.dx

         IS        1.477E-09      2.675E-16      2.675E-16  
         VJ        5.180E-01      1.006E+00      1.006E+00  
        CJO        3.948E-12      9.954E-12      0.000E+00  
         RS        5.664E-01      1.000E-03      1.000E+00  
        IKF        4.417E-02      0.000E+00      0.000E+00  
         BV        1.000E+02  

               X_U1B.x_lm358.dy
                              X_U1B.x_lm358.dx

         IS        2.675E-16      2.675E-16  
         VJ        1.006E+00      1.006E+00  
        CJO        9.954E-12      0.000E+00  
         RS        1.000E-03      1.000E+00  
        IKF        0.000E+00      0.000E+00  
         BV                   


 **** BJT MODEL PARAMETERS

                   Q2N3904    X_U1A.x_lm358.qx
                                             X_U1B.x_lm358.qx

         BF        4.019E+02      1.667E+02      1.667E+02  
        ISE        2.922E-15      0.000E+00      0.000E+00  
        VJE        7.622E-01      7.622E-01      7.622E-01  
        CJE        4.471E-12      0.000E+00      0.000E+00  
         RE        0.000E+00      0.000E+00      0.000E+00  
         RB        1.000E+01      0.000E+00      0.000E+00  
         BR        7.115E-01      1.000E+00      1.000E+00  
        ISC        0.000E+00      0.000E+00      0.000E+00  
        VJC        7.622E-01      7.622E-01      7.622E-01  
        CJC        3.617E-12      0.000E+00      0.000E+00  
         RC        1.000E+00      0.000E+00      0.000E+00  
        RBM        1.000E+01      0.000E+00      0.000E+00  
         IS        2.251E-15      2.675E-16      2.675E-16  
        ISS        0.000E+00      0.000E+00      0.000E+00  
        VJS        7.622E-01      7.622E-01      7.622E-01  
        CJS        0.000E+00      0.000E+00      0.000E+00  
      GAMMA        1.000E-11      1.000E-11      1.000E-11  
        RCO        0.000E+00      0.000E+00      0.000E+00  
         VO        1.000E+01      1.000E+01      1.000E+01  


**** 03/09/22 11:51:53 ******* PSpice Lite (March 2016) ******* ID# 10813 ****

 ** Profile: "SCHEMATIC1-sim"  [ D:\Practicas\E_General\Termometro-PSpiceFiles\SCHEMATIC1\sim.sim ] 


 ****     TEMPERATURE-ADJUSTED VALUES      TEMPERATURE =   25.000 DEG C


******************************************************************************




 **** DIODE MODEL PARAMETERS

                   D1N4148    X_U1A.x_lm358.dy
                                             X_U1A.x_lm358.dx

         IS        2.268E-09      5.880E-16      5.880E-16  
         VJ        5.051E-01      1.002E+00      1.002E+00  
        CJO        3.985E-12      9.987E-12      0.000E+00  
         RS        5.664E-01      1.000E-03      1.000E+00  
        IKF        4.417E-02      0.000E+00      0.000E+00  
         BV        1.000E+02  

               X_U1B.x_lm358.dy
                              X_U1B.x_lm358.dx

         IS        5.880E-16      5.880E-16  
         VJ        1.002E+00      1.002E+00  
        CJO        9.987E-12      0.000E+00  
         RS        1.000E-03      1.000E+00  
        IKF        0.000E+00      0.000E+00  
         BV                   


 **** BJT MODEL PARAMETERS

                   Q2N3904    X_U1A.x_lm358.qx
                                             X_U1B.x_lm358.qx

         BF        4.122E+02      1.667E+02      1.667E+02  
        ISE        5.326E-15      0.000E+00      0.000E+00  
        VJE        7.535E-01      7.535E-01      7.535E-01  
        CJE        4.487E-12      0.000E+00      0.000E+00  
         RE        0.000E+00      0.000E+00      0.000E+00  
         RB        1.000E+01      0.000E+00      0.000E+00  
         BR        7.297E-01      1.000E+00      1.000E+00  
        ISC        0.000E+00      0.000E+00      0.000E+00  
        VJC        7.535E-01      7.535E-01      7.535E-01  
        CJC        3.632E-12      0.000E+00      0.000E+00  
         RC        1.000E+00      0.000E+00      0.000E+00  
        RBM        1.000E+01      0.000E+00      0.000E+00  
         IS        4.949E-15      5.880E-16      5.880E-16  
        ISS        0.000E+00      0.000E+00      0.000E+00  
        VJS        7.535E-01      7.535E-01      7.535E-01  
        CJS        0.000E+00      0.000E+00      0.000E+00  
      GAMMA        1.000E-11      1.000E-11      1.000E-11  
        RCO        0.000E+00      0.000E+00      0.000E+00  
         VO        1.000E+01      1.000E+01      1.000E+01  


**** 03/09/22 11:51:53 ******* PSpice Lite (March 2016) ******* ID# 10813 ****

 ** Profile: "SCHEMATIC1-sim"  [ D:\Practicas\E_General\Termometro-PSpiceFiles\SCHEMATIC1\sim.sim ] 


 ****     TEMPERATURE-ADJUSTED VALUES      TEMPERATURE =   30.000 DEG C


******************************************************************************




 **** DIODE MODEL PARAMETERS

                   D1N4148    X_U1A.x_lm358.dy
                                             X_U1A.x_lm358.dx

         IS        3.435E-09      1.260E-15      1.260E-15  
         VJ        4.923E-01      9.973E-01      9.973E-01  
        CJO        4.022E-12      1.002E-11      0.000E+00  
         RS        5.664E-01      1.000E-03      1.000E+00  
        IKF        4.417E-02      0.000E+00      0.000E+00  
         BV        1.000E+02  

               X_U1B.x_lm358.dy
                              X_U1B.x_lm358.dx

         IS        1.260E-15      1.260E-15  
         VJ        9.973E-01      9.973E-01  
        CJO        1.002E-11      0.000E+00  
         RS        1.000E-03      1.000E+00  
        IKF        0.000E+00      0.000E+00  
         BV                   


 **** BJT MODEL PARAMETERS

                   Q2N3904    X_U1A.x_lm358.qx
                                             X_U1B.x_lm358.qx

         BF        4.227E+02      1.667E+02      1.667E+02  
        ISE        9.519E-15      0.000E+00      0.000E+00  
        VJE        7.448E-01      7.448E-01      7.448E-01  
        CJE        4.503E-12      0.000E+00      0.000E+00  
         RE        0.000E+00      0.000E+00      0.000E+00  
         RB        1.000E+01      0.000E+00      0.000E+00  
         BR        7.482E-01      1.000E+00      1.000E+00  
        ISC        0.000E+00      0.000E+00      0.000E+00  
        VJC        7.448E-01      7.448E-01      7.448E-01  
        CJC        3.647E-12      0.000E+00      0.000E+00  
         RC        1.000E+00      0.000E+00      0.000E+00  
        RBM        1.000E+01      0.000E+00      0.000E+00  
         IS        1.061E-14      1.260E-15      1.260E-15  
        ISS        0.000E+00      0.000E+00      0.000E+00  
        VJS        7.448E-01      7.448E-01      7.448E-01  
        CJS        0.000E+00      0.000E+00      0.000E+00  
      GAMMA        1.000E-11      1.000E-11      1.000E-11  
        RCO        0.000E+00      0.000E+00      0.000E+00  
         VO        1.000E+01      1.000E+01      1.000E+01  



          JOB CONCLUDED

**** 03/09/22 11:51:53 ******* PSpice Lite (March 2016) ******* ID# 10813 ****

 ** Profile: "SCHEMATIC1-sim"  [ D:\Practicas\E_General\Termometro-PSpiceFiles\SCHEMATIC1\sim.sim ] 


 ****     JOB STATISTICS SUMMARY


******************************************************************************



  Total job time (using Solver 1)   =         .13
