
**** 03/18/22 20:13:22 ******* PSpice Lite (March 2016) ******* ID# 10813 ****

 ** Profile: "SCHEMATIC1-pbg"  [ D:\Practicas\E_General\termometro_0-PSpiceFiles\SCHEMATIC1\pbg.sim ] 


 ****     CIRCUIT DESCRIPTION


******************************************************************************




** Creating circuit file "pbg.cir" 
** WARNING: THIS AUTOMATICALLY GENERATED FILE MAY BE OVERWRITTEN BY SUBSEQUENT SIMULATIONS

*Libraries: 
* Profile Libraries :
* Local Libraries :
* From [PSPICE NETLIST] section of C:\SPB_DATA\cdssetup\OrCAD_PSpice\17.2.0\PSpice.ini file:
.lib "nomd.lib" 

*Analysis directives: 
.TRAN  0 1000ns 0 
.STEP LIN PARAM n 100k 120k 0.1k 
.TEMP -70 30
.OPTIONS ADVCONV
.PROBE64 V(alias(*)) I(alias(*)) W(alias(*)) D(alias(*)) NOISE(alias(*)) 
.INC "..\SCHEMATIC1.net" 



**** INCLUDING SCHEMATIC1.net ****
* source TERMOMETRO_0
R_R1         N00280 VC+  {n} TC=0,0 
V_V1         VC+ 0 5
V_V2         VS- 0 5
D_D3         0 N01078 D1N4148 
V_V3         N01078 0 1.226
X_U3         N01352 0 AD1580/AD
R_R4         N01326 V+  68k TC=0,0 
R_R5         N01352 N01326  6.8k TC=0,0 
X_U4A         N01352 N02823 V+ V- N02106 LM358
V_V4         V+ 0 5
V_V5         V- 0 5
D_D2         0 N02823 D1N4148 
Q_Q1         V+ N02106 N020952 Q2N3904
R_R6         N02823 N020952  1k TC=0,0 
X_D1         0 N00280 LM385 
.PARAM  n=1

**** RESUMING pbg.cir ****
.END

ERROR(ORPSIM-15049): Only one .TEMP value allowed with .STEP
