
**** 03/18/22 09:54:13 ******* PSpice Lite (March 2016) ******* ID# 10813 ****

 ** Profile: "SCHEMATIC1-diode_1"  [ D:\Practicas\E_General\termometro_0-PSpiceFiles\SCHEMATIC1\diode_1.sim ] 


 ****     CIRCUIT DESCRIPTION


******************************************************************************




** Creating circuit file "diode_1.cir" 
** WARNING: THIS AUTOMATICALLY GENERATED FILE MAY BE OVERWRITTEN BY SUBSEQUENT SIMULATIONS

*Libraries: 
* Profile Libraries :
* Local Libraries :
* From [PSPICE NETLIST] section of C:\SPB_DATA\cdssetup\OrCAD_PSpice\17.2.0\PSpice.ini file:
.lib "nomd.lib" 

*Analysis directives: 
.DC LIN TEMP -70 30 0.1 
.OPTIONS ADVCONV
.PROBE64 V(alias(*)) I(alias(*)) W(alias(*)) D(alias(*)) NOISE(alias(*)) 
.INC "..\SCHEMATIC1.net" 



**** INCLUDING SCHEMATIC1.net ****
* source TERMOMETRO_0
X_U1         N00280 0 AD1580/AD
R_R1         N00280 VCC  {n} TC=0,0 
V_V1         VCC 0 5
V_V2         VSS 0 5
X_U2         N00996 0 AD1580/AD
R_R2         N00992 VCC  68k TC=0,0 
R_R3         N00996 N00992  6.8k TC=0,0 
D_D1         0 N01078 D1N4148 
V_V3         N01078 0 1.226
.PARAM  n=1

**** RESUMING diode_1.cir ****
.END

**** 03/18/22 09:54:13 ******* PSpice Lite (March 2016) ******* ID# 10813 ****

 ** Profile: "SCHEMATIC1-diode_1"  [ D:\Practicas\E_General\termometro_0-PSpiceFiles\SCHEMATIC1\diode_1.sim ] 


 ****     Diode MODEL PARAMETERS


******************************************************************************




               D1N4148         
          IS    2.682000E-09 
           N    1.836        
         ISR    1.565000E-09 
         IKF     .04417      
          BV  100            
         IBV  100.000000E-06 
          RS     .5664       
          TT   11.540000E-09 
         CJO    4.000000E-12 
          VJ     .5          
           M     .3333       


**** 03/18/22 09:54:13 ******* PSpice Lite (March 2016) ******* ID# 10813 ****

 ** Profile: "SCHEMATIC1-diode_1"  [ D:\Practicas\E_General\termometro_0-PSpiceFiles\SCHEMATIC1\diode_1.sim ] 


 ****     BJT MODEL PARAMETERS


******************************************************************************




               X_U1.qn1        X_U1.qn2        X_U1.qp1        X_U2.qn1        
               NPN             NPN             PNP             NPN             
       LEVEL    1               1               1               1            
          IS  100.000000E-18  100.000000E-18  100.000000E-18  100.000000E-18 
          BF  100             100              50.000000E+03  100            
          NF    1               1               1               1            
         VAF  100             100             100             100            
          BR    1               1               1               1            
          NR    1               1               1               1            
         ISS    0               0               0               0            
          RE    0               0               0               0            
          RC    0               0               0               0            
         CJE    0               0               0               0            
         VJE     .75             .75             .75             .75         
         CJC    0               0               0               0            
         VJC     .75             .75             .75             .75         
         MJC     .33             .33             .33             .33         
        XCJC    1               1               1               1            
         CJS    0               0               0               0            
         VJS     .75             .75             .75             .75         
          KF    0               0               0               0            
          AF    1               1               1               1            
          CN    2.42            2.42            2.2             2.42         
           D     .87             .87             .52             .87         


               X_U2.qn2        X_U2.qp1        
               NPN             PNP             
       LEVEL    1               1            
          IS  100.000000E-18  100.000000E-18 
          BF  100              50.000000E+03 
          NF    1               1            
         VAF  100             100            
          BR    1               1            
          NR    1               1            
         ISS    0               0            
          RE    0               0            
          RC    0               0            
         CJE    0               0            
         VJE     .75             .75         
         CJC    0               0            
         VJC     .75             .75         
         MJC     .33             .33         
        XCJC    1               1            
         CJS    0               0            
         VJS     .75             .75         
          KF    0               0            
          AF    1               1            
          CN    2.42            2.2          
           D     .87             .52         



          JOB CONCLUDED

**** 03/18/22 09:54:13 ******* PSpice Lite (March 2016) ******* ID# 10813 ****

 ** Profile: "SCHEMATIC1-diode_1"  [ D:\Practicas\E_General\termometro_0-PSpiceFiles\SCHEMATIC1\diode_1.sim ] 


 ****     JOB STATISTICS SUMMARY


******************************************************************************



  Total job time (using Solver 1)   =         .06
