
**** 03/19/22 20:13:09 ******* PSpice Lite (March 2016) ******* ID# 10813 ****

 ** Profile: "SCHEMATIC1-ff"  [ D:\Practicas\E_General\termometro_final-pspicefiles\schematic1\ff.sim ] 


 ****     CIRCUIT DESCRIPTION


******************************************************************************




** Creating circuit file "ff.cir" 
** WARNING: THIS AUTOMATICALLY GENERATED FILE MAY BE OVERWRITTEN BY SUBSEQUENT SIMULATIONS

*Libraries: 
* Profile Libraries :
* Local Libraries :
* From [PSPICE NETLIST] section of C:\SPB_DATA\cdssetup\OrCAD_PSpice\17.2.0\PSpice.ini file:
.lib "nomd.lib" 

*Analysis directives: 
.DC LIN TEMP -10 30 .1 
.OPTIONS ADVCONV
.PROBE64 V(alias(*)) I(alias(*)) W(alias(*)) D(alias(*)) NOISE(alias(*)) 
.INC "..\SCHEMATIC1.net" 



**** INCLUDING SCHEMATIC1.net ****
* source TERMOMETRO_FINAL
X_D1         0 N05719 LM385 
V_V1         VC+ 0 5
R_R1         N05719 VC+  188.2K TC=0,0 
V_V2         0 VS- 5
R_R4         0 N05719  1.2k TC=0,0 
R_R5         0 N05719  1.2k TC=0,0 
D_D4         N09642 N05719 D1N4148 
X_U3B         N09628 N09647 VS- VC+ N09382 LM358
R_R6         N10835 N09628  1k TC=0,0 
R_R7         N09642 N09647  1k TC=0,0 
R_R8         N09628 N09382  1k TC=0,0 
R_R9         0 N09647  1k TC=0,0 
D_D3         N10835 N05719 D1N4148 

**** RESUMING ff.cir ****
.END

**** 03/19/22 20:13:09 ******* PSpice Lite (March 2016) ******* ID# 10813 ****

 ** Profile: "SCHEMATIC1-ff"  [ D:\Practicas\E_General\termometro_final-pspicefiles\schematic1\ff.sim ] 


 ****     Diode MODEL PARAMETERS


******************************************************************************




               D1N4148         X_D1.DF         
          IS    2.682000E-09   39.120000E-15 
           N    1.836            .9983       
         ISR    1.565000E-09                 
         IKF     .04417                      
          BV  100                            
         IBV  100.000000E-06                 
          RS     .5664         12.18         
          TT   11.540000E-09                 
         CJO    4.000000E-12                 
          VJ     .5                          
           M     .3333                       


               X_U3B.x_lm358.dx 
          IS  800.000000E-18 
          RS    1            


               X_U3B.x_lm358.dy 
          IS  800.000000E-18 
          RS    1.000000E-03 
         CJO   10.000000E-12 


**** 03/19/22 20:13:09 ******* PSpice Lite (March 2016) ******* ID# 10813 ****

 ** Profile: "SCHEMATIC1-ff"  [ D:\Practicas\E_General\termometro_final-pspicefiles\schematic1\ff.sim ] 


 ****     BJT MODEL PARAMETERS


******************************************************************************




               X_U3B.x_lm358.qx 
               PNP             
       LEVEL    1            
          IS  800.000000E-18 
          BF  166.7          
          NF    1            
          BR    1            
          NR    1            
         ISS    0            
          RE    0            
          RC    0            
         CJE    0            
         VJE     .75         
         CJC    0            
         VJC     .75         
         MJC     .33         
        XCJC    1            
         CJS    0            
         VJS     .75         
          KF    0            
          AF    1            
          CN    2.2          
           D     .52         


**** 03/19/22 20:13:09 ******* PSpice Lite (March 2016) ******* ID# 10813 ****

 ** Profile: "SCHEMATIC1-ff"  [ D:\Practicas\E_General\termometro_final-pspicefiles\schematic1\ff.sim ] 


 ****     Current Controlled Switch MODEL PARAMETERS


******************************************************************************




               X_U3B.x_lm358.sw2 
         RON    1            
        ROFF   10.000000E+06 
         ION    0            
        IOFF   -1.000000E-06 


               X_U3B.x_lm358.sw1 
         RON    1            
        ROFF   10.000000E+06 
         ION   -1.000000E-06 
        IOFF    0            


               X_U3B.x_lm358.sw3 
         RON    1            
        ROFF   10.000000E+06 
         ION   -1.000000E-06 
        IOFF    0            


               X_U3B.x_lm358.sw4 
         RON    1            
        ROFF   10.000000E+06 
         ION    0            
        IOFF   -1.000000E-06 



          JOB CONCLUDED

**** 03/19/22 20:13:09 ******* PSpice Lite (March 2016) ******* ID# 10813 ****

 ** Profile: "SCHEMATIC1-ff"  [ D:\Practicas\E_General\termometro_final-pspicefiles\schematic1\ff.sim ] 


 ****     JOB STATISTICS SUMMARY


******************************************************************************



  Total job time (using Solver 1)   =         .05
