
**** 03/19/22 18:46:45 ******* PSpice Lite (March 2016) ******* ID# 10813 ****

 ** Profile: "SCHEMATIC1-p"  [ D:\Practicas\E_General\termometro_infinito1-PSpiceFiles\SCHEMATIC1\p.sim ] 


 ****     CIRCUIT DESCRIPTION


******************************************************************************




** Creating circuit file "p.cir" 
** WARNING: THIS AUTOMATICALLY GENERATED FILE MAY BE OVERWRITTEN BY SUBSEQUENT SIMULATIONS

*Libraries: 
* Profile Libraries :
* Local Libraries :
* From [PSPICE NETLIST] section of C:\SPB_DATA\cdssetup\OrCAD_PSpice\17.2.0\PSpice.ini file:
.lib "nomd.lib" 

*Analysis directives: 
.DC LIN TEMP -10 30 0.1 
.OPTIONS ADVCONV
.PROBE64 V(alias(*)) I(alias(*)) W(alias(*)) D(alias(*)) NOISE(alias(*)) 
.INC "..\SCHEMATIC1.net" 



**** INCLUDING SCHEMATIC1.net ****
* source TERMOMETRO_INFINITO1
Q_Q2         VC+ N02118 N02376 Q2N3904
D_D2         N02372 N02364 D1N4148 
R_R1         N02138 VC+  3765 TC=0,0 
X_U1A         N02138 N02364 VC+ VS- N02118 LM358
R_R2         0 N02364  1235 TC=0,0 
V_V1         VC+ 0 5
R_R5         N02376 N02522  1k TC=0,0 
R_R3         0 N02642  1235 TC=0,0 
X_U2         N02522 N02312 VC+ VS- N02322 LM741
V_V3         N02376 N02642 0.79
R_R4         N02372 N02312  1k TC=0,0 
Q_Q1         VC+ N02118 N02372 Q2N3904
X_D1         0 N02138 LM385 
R_R7         N02522 0  1k TC=0,0 
V_V2         0 VS- 5
R_R6         N02312 N02322  1k TC=0,0 

**** RESUMING p.cir ****
.END

**** 03/19/22 18:46:45 ******* PSpice Lite (March 2016) ******* ID# 10813 ****

 ** Profile: "SCHEMATIC1-p"  [ D:\Practicas\E_General\termometro_infinito1-PSpiceFiles\SCHEMATIC1\p.sim ] 


 ****     Diode MODEL PARAMETERS


******************************************************************************




               D1N4148         X_D1.DF         
          IS    2.682000E-09   39.120000E-15 
           N    1.836            .9983       
         ISR    1.565000E-09                 
         IKF     .04417                      
          BV  100                            
         IBV  100.000000E-06                 
          RS     .5664         12.18         
          TT   11.540000E-09                 
         CJO    4.000000E-12                 
          VJ     .5                          
           M     .3333                       


               X_U1A.x_lm358.dx 
          IS  800.000000E-18 
          RS    1            


               X_U1A.x_lm358.dy                X_U2.x_lm741.dx X_U2.x_lm741.dy 
          IS  800.000000E-18                  800.000000E-18  800.000000E-18 
          RS    1.000000E-03                    1               1.000000E-03 
         CJO   10.000000E-12                                   10.000000E-12 


**** 03/19/22 18:46:45 ******* PSpice Lite (March 2016) ******* ID# 10813 ****

 ** Profile: "SCHEMATIC1-p"  [ D:\Practicas\E_General\termometro_infinito1-PSpiceFiles\SCHEMATIC1\p.sim ] 


 ****     BJT MODEL PARAMETERS


******************************************************************************




               Q2N3904         X_U1A.x_lm358.qx                X_U2.x_lm741.qx 
               NPN             PNP                             NPN             
       LEVEL    1               1                               1            
          IS    6.734000E-15  800.000000E-18                  800.000000E-18 
          BF  416.4           166.7                            93.75         
          NF    1               1                               1            
         VAF   74.03                         
         IKF     .06678                      
         ISE    6.734000E-15                 
          NE    1.259                        
          BR     .7371          1                               1            
          NR    1               1                               1            
         ISS    0               0                               0            
          RB   10                            
          RE    0               0                               0            
          RC    1               0                               0            
         CJE    4.493000E-12    0                               0            
         VJE     .75             .75                             .75         
         MJE     .2593                       
         CJC    3.638000E-12    0                               0            
         VJC     .75             .75                             .75         
         MJC     .3085           .33                             .33         
        XCJC    1               1                               1            
         CJS    0               0                               0            
         VJS     .75             .75                             .75         
          TF  301.200000E-12                 
         XTF    2                            
         VTF    4                            
         ITF     .4                          
          TR  239.500000E-09                 
         XTB    1.5                          
          KF    0               0                               0            
          AF    1               1                               1            
          CN    2.42            2.2                             2.42         
           D     .87             .52                             .87         


**** 03/19/22 18:46:45 ******* PSpice Lite (March 2016) ******* ID# 10813 ****

 ** Profile: "SCHEMATIC1-p"  [ D:\Practicas\E_General\termometro_infinito1-PSpiceFiles\SCHEMATIC1\p.sim ] 


 ****     Current Controlled Switch MODEL PARAMETERS


******************************************************************************




               X_U1A.x_lm358.sw2 
         RON    1            
        ROFF   10.000000E+06 
         ION    0            
        IOFF   -1.000000E-06 


               X_U1A.x_lm358.sw1 
         RON    1            
        ROFF   10.000000E+06 
         ION   -1.000000E-06 
        IOFF    0            


               X_U1A.x_lm358.sw3 
         RON    1            
        ROFF   10.000000E+06 
         ION   -1.000000E-06 
        IOFF    0            


               X_U1A.x_lm358.sw4 
         RON    1            
        ROFF   10.000000E+06 
         ION    0            
        IOFF   -1.000000E-06 



          JOB CONCLUDED

**** 03/19/22 18:46:45 ******* PSpice Lite (March 2016) ******* ID# 10813 ****

 ** Profile: "SCHEMATIC1-p"  [ D:\Practicas\E_General\termometro_infinito1-PSpiceFiles\SCHEMATIC1\p.sim ] 


 ****     JOB STATISTICS SUMMARY


******************************************************************************



  Total job time (using Solver 1)   =         .06
