
**** 03/19/22 16:28:55 ******* PSpice Lite (March 2016) ******* ID# 10813 ****

 ** Profile: "SCHEMATIC1-p2"  [ D:\Practicas\E_General\Termometro_Final-PSpiceFiles\SCHEMATIC1\p2.sim ] 


 ****     CIRCUIT DESCRIPTION


******************************************************************************




** Creating circuit file "p2.cir" 
** WARNING: THIS AUTOMATICALLY GENERATED FILE MAY BE OVERWRITTEN BY SUBSEQUENT SIMULATIONS

*Libraries: 
* Profile Libraries :
* Local Libraries :
* From [PSPICE NETLIST] section of C:\SPB_DATA\cdssetup\OrCAD_PSpice\17.2.0\PSpice.ini file:
.lib "nomd.lib" 

*Analysis directives: 
.DC LIN PARAM n 10Meg 50Meg 1Meg 
.TEMP 50
.OPTIONS ADVCONV
.PROBE64 V(alias(*)) I(alias(*)) W(alias(*)) D(alias(*)) NOISE(alias(*)) 
.INC "..\SCHEMATIC1.net" 



**** INCLUDING SCHEMATIC1.net ****
* source TERMOMETRO_FINAL
X_D1         0 N05787 LM385 
V_V1         VC+ 0 5
R_R1         N05719 VC+  180K TC=0,0 
R_R2         N05787 N05719  8.2K TC=0,0 
X_U1A         N05787 N07022 VC+ 0 N07101 LM358
D_D2         0 N07022 D1N4148 
R_R3         N07022 N07101  {n} TC=0,0 
.PARAM  n=1

**** RESUMING p2.cir ****
.END

**** 03/19/22 16:28:55 ******* PSpice Lite (March 2016) ******* ID# 10813 ****

 ** Profile: "SCHEMATIC1-p2"  [ D:\Practicas\E_General\Termometro_Final-PSpiceFiles\SCHEMATIC1\p2.sim ] 


 ****     Diode MODEL PARAMETERS


******************************************************************************




               D1N4148         X_D1.DF         
          IS    2.682000E-09   39.120000E-15 
           N    1.836            .9983       
         ISR    1.565000E-09                 
         IKF     .04417                      
          BV  100                            
         IBV  100.000000E-06                 
          RS     .5664         12.18         
          TT   11.540000E-09                 
         CJO    4.000000E-12                 
          VJ     .5                          
           M     .3333                       


               X_U1A.x_lm358.dx 
          IS  800.000000E-18 
          RS    1            


               X_U1A.x_lm358.dy 
          IS  800.000000E-18 
          RS    1.000000E-03 
         CJO   10.000000E-12 


**** 03/19/22 16:28:55 ******* PSpice Lite (March 2016) ******* ID# 10813 ****

 ** Profile: "SCHEMATIC1-p2"  [ D:\Practicas\E_General\Termometro_Final-PSpiceFiles\SCHEMATIC1\p2.sim ] 


 ****     BJT MODEL PARAMETERS


******************************************************************************




               X_U1A.x_lm358.qx 
               PNP             
       LEVEL    1            
          IS  800.000000E-18 
          BF  166.7          
          NF    1            
          BR    1            
          NR    1            
         ISS    0            
          RE    0            
          RC    0            
         CJE    0            
         VJE     .75         
         CJC    0            
         VJC     .75         
         MJC     .33         
        XCJC    1            
         CJS    0            
         VJS     .75         
          KF    0            
          AF    1            
          CN    2.2          
           D     .52         


**** 03/19/22 16:28:55 ******* PSpice Lite (March 2016) ******* ID# 10813 ****

 ** Profile: "SCHEMATIC1-p2"  [ D:\Practicas\E_General\Termometro_Final-PSpiceFiles\SCHEMATIC1\p2.sim ] 


 ****     Current Controlled Switch MODEL PARAMETERS


******************************************************************************




               X_U1A.x_lm358.sw2 
         RON    1            
        ROFF   10.000000E+06 
         ION    0            
        IOFF   -1.000000E-06 


               X_U1A.x_lm358.sw1 
         RON    1            
        ROFF   10.000000E+06 
         ION   -1.000000E-06 
        IOFF    0            


               X_U1A.x_lm358.sw3 
         RON    1            
        ROFF   10.000000E+06 
         ION   -1.000000E-06 
        IOFF    0            


               X_U1A.x_lm358.sw4 
         RON    1            
        ROFF   10.000000E+06 
         ION    0            
        IOFF   -1.000000E-06 


**** 03/19/22 16:28:55 ******* PSpice Lite (March 2016) ******* ID# 10813 ****

 ** Profile: "SCHEMATIC1-p2"  [ D:\Practicas\E_General\Termometro_Final-PSpiceFiles\SCHEMATIC1\p2.sim ] 


 ****     TEMPERATURE-ADJUSTED VALUES      TEMPERATURE =   50.000 DEG C


******************************************************************************




 **** DIODE MODEL PARAMETERS

                   D1N4148        X_D1.DF    X_U1A.x_lm358.dy

         IS        1.597E-08      1.041E-12      2.118E-14  
         VJ        4.404E-01      9.787E-01      9.787E-01  
        CJO        4.171E-12      0.000E+00      1.015E-11  
         RS        5.664E-01      1.218E+01      1.000E-03  
        IKF        4.417E-02      0.000E+00      0.000E+00  
         BV        1.000E+02  

               X_U1A.x_lm358.dx

         IS        2.118E-14  
         VJ        9.787E-01  
        CJO        0.000E+00  
         RS        1.000E+00  
        IKF        0.000E+00  
         BV                   


 **** BJT MODEL PARAMETERS

               X_U1A.x_lm358.qx

         BF        1.667E+02  
        ISE        0.000E+00  
        VJE        7.095E-01  
        CJE        0.000E+00  
         RE        0.000E+00  
         RB        0.000E+00  
         BR        1.000E+00  
        ISC        0.000E+00  
        VJC        7.095E-01  
        CJC        0.000E+00  
         RC        0.000E+00  
        RBM        0.000E+00  
         IS        2.118E-14  
        ISS        0.000E+00  
        VJS        7.095E-01  
        CJS        0.000E+00  
      GAMMA        1.000E-11  
        RCO        0.000E+00  
         VO        1.000E+01  


 **** RESISTORS

                X_D1.RBV < >                                

          R        1.237E+03  




          JOB CONCLUDED

**** 03/19/22 16:28:55 ******* PSpice Lite (March 2016) ******* ID# 10813 ****

 ** Profile: "SCHEMATIC1-p2"  [ D:\Practicas\E_General\Termometro_Final-PSpiceFiles\SCHEMATIC1\p2.sim ] 


 ****     JOB STATISTICS SUMMARY


******************************************************************************



  Total job time (using Solver 1)   =         .03
