
**** 03/19/22 20:11:31 ******* PSpice Lite (March 2016) ******* ID# 10813 ****

 ** Profile: "SCHEMATIC1-p3"  [ D:\Practicas\E_General\termometro_final-pspicefiles\schematic1\p3.sim ] 


 ****     CIRCUIT DESCRIPTION


******************************************************************************




** Creating circuit file "p3.cir" 
** WARNING: THIS AUTOMATICALLY GENERATED FILE MAY BE OVERWRITTEN BY SUBSEQUENT SIMULATIONS

*Libraries: 
* Profile Libraries :
* Local Libraries :
* From [PSPICE NETLIST] section of C:\SPB_DATA\cdssetup\OrCAD_PSpice\17.2.0\PSpice.ini file:
.lib "nomd.lib" 

*Analysis directives: 
.DC LIN PARAM n 10Meg 50Meg 1Meg 
.TEMP 30
.OPTIONS ADVCONV
.PROBE64 V(alias(*)) I(alias(*)) W(alias(*)) D(alias(*)) NOISE(alias(*)) 
.INC "..\SCHEMATIC1.net" 



**** INCLUDING SCHEMATIC1.net ****
* source TERMOMETRO_FINAL
X_D1         0 N05787 LM385 
V_V1         VC+ 0 5
R_R1         N05719 VC+  180K TC=0,0 
R_R2         N05787 N05719  8.2K TC=0,0 
V_V2         0 VS- 5
X_U1B         N05787 N08000 VC+ VS- N07963 LM358
R_R4         0 N08000  1.2k TC=0,0 
R_R5         0 N08000  1.2k TC=0,0 
D_D4         N09157 N08000 D1N4148 
Q_Q1         VC+ N07963 N10831 Q2N3904
Q_Q2         VC+ N07963 N09157 Q2N3904
X_U3B         N09628 N09647 VS- VC+ N09382 LM358
R_R6         N10831 N09628  1k TC=0,0 
R_R7         N09157 N09647  1k TC=0,0 
R_R8         N09628 N09382  1k TC=0,0 
R_R9         0 N09647  1k TC=0,0 
D_D3         N10831 N08000 D1N4148 

**** RESUMING p3.cir ****
.END

ERROR(ORPSIM-15167): Undefined parameter: n.
