
**** 03/18/22 19:51:00 ******* PSpice Lite (March 2016) ******* ID# 10813 ****

 ** Profile: "SCHEMATIC1-tst3_2"  [ D:\Practicas\E_General\Termometro_5-PSpiceFiles\SCHEMATIC1\tst3_2.sim ] 


 ****     CIRCUIT DESCRIPTION


******************************************************************************




** Creating circuit file "tst3_2.cir" 
** WARNING: THIS AUTOMATICALLY GENERATED FILE MAY BE OVERWRITTEN BY SUBSEQUENT SIMULATIONS

*Libraries: 
* Profile Libraries :
* Local Libraries :
* From [PSPICE NETLIST] section of C:\SPB_DATA\cdssetup\OrCAD_PSpice\17.2.0\PSpice.ini file:
.lib "nomd.lib" 

*Analysis directives: 
.DC LIN TEMP -10 30 0.1 
.OPTIONS ADVCONV
.PROBE64 V(alias(*)) I(alias(*)) W(alias(*)) D(alias(*)) NOISE(alias(*)) 
.INC "..\SCHEMATIC1.net" 



**** INCLUDING SCHEMATIC1.net ****
* source TERMOMETRO_5
R_R2         N02783 N02751  1k TC=0,0 
V_V1         VCC 0 5
D_D2         0 N02783 D1N4148 
X_D1         0 N02631 LM385 
R_R5         N02631 N02839  1k TC=0,0 
X_U1A         N02631 N02783 VCC VSS N02751 LM358
R_R1         N02631 VCC  116564 TC=0,0 
X_U2B         N02751 N02839 VCC VSS N02787 LM358
V_V2         0 VSS 5
V_V3         N02631 N03011 787.35mV
R_R4         N03465 N02631  1.4M TC=0,0 
M_M1         N03011 N03465 0 0 IRF150
M_M2         0 N03465 N03465 N03465 IRF150

**** RESUMING tst3_2.cir ****
.END

**** 03/18/22 19:51:00 ******* PSpice Lite (March 2016) ******* ID# 10813 ****

 ** Profile: "SCHEMATIC1-tst3_2"  [ D:\Practicas\E_General\Termometro_5-PSpiceFiles\SCHEMATIC1\tst3_2.sim ] 


 ****     Diode MODEL PARAMETERS


******************************************************************************




               D1N4148         X_D1.DF         
          IS    2.682000E-09   39.120000E-15 
           N    1.836            .9983       
         ISR    1.565000E-09                 
         IKF     .04417                      
          BV  100                            
         IBV  100.000000E-06                 
          RS     .5664         12.18         
          TT   11.540000E-09                 
         CJO    4.000000E-12                 
          VJ     .5                          
           M     .3333                       


               X_U1A.x_lm358.dx 
          IS  800.000000E-18 
          RS    1            


               X_U1A.x_lm358.dy 
          IS  800.000000E-18 
          RS    1.000000E-03 
         CJO   10.000000E-12 


               X_U2B.x_lm358.dx 
          IS  800.000000E-18 
          RS    1            


               X_U2B.x_lm358.dy 
          IS  800.000000E-18 
          RS    1.000000E-03 
         CJO   10.000000E-12 


**** 03/18/22 19:51:00 ******* PSpice Lite (March 2016) ******* ID# 10813 ****

 ** Profile: "SCHEMATIC1-tst3_2"  [ D:\Practicas\E_General\Termometro_5-PSpiceFiles\SCHEMATIC1\tst3_2.sim ] 


 ****     BJT MODEL PARAMETERS


******************************************************************************




               X_U1A.x_lm358.qx 
               PNP             
       LEVEL    1            
          IS  800.000000E-18 
          BF  166.7          
          NF    1            
          BR    1            
          NR    1            
         ISS    0            
          RE    0            
          RC    0            
         CJE    0            
         VJE     .75         
         CJC    0            
         VJC     .75         
         MJC     .33         
        XCJC    1            
         CJS    0            
         VJS     .75         
          KF    0            
          AF    1            
          CN    2.2          
           D     .52         


               X_U2B.x_lm358.qx 
               PNP             
       LEVEL    1            
          IS  800.000000E-18 
          BF  166.7          
          NF    1            
          BR    1            
          NR    1            
         ISS    0            
          RE    0            
          RC    0            
         CJE    0            
         VJE     .75         
         CJC    0            
         VJC     .75         
         MJC     .33         
        XCJC    1            
         CJS    0            
         VJS     .75         
          KF    0            
          AF    1            
          CN    2.2          
           D     .52         


**** 03/18/22 19:51:00 ******* PSpice Lite (March 2016) ******* ID# 10813 ****

 ** Profile: "SCHEMATIC1-tst3_2"  [ D:\Practicas\E_General\Termometro_5-PSpiceFiles\SCHEMATIC1\tst3_2.sim ] 


 ****     MOSFET MODEL PARAMETERS


******************************************************************************




               IRF150          
               NMOS            
       LEVEL    3            
           L    2.000000E-06 
           W     .3          
         VTO    2.831        
          KP   20.530000E-06 
       GAMMA    0            
         PHI     .6          
      LAMBDA    0            
          RD    1.031000E-03 
          RS    1.624000E-03 
          RG   13.89         
         RDS  444.400000E+03 
          IS  194.000000E-18 
          JS    0            
          PB     .8          
        PBSW     .8          
         CBD    3.229000E-09 
          CJ    0            
        CJSW    0            
          TT  288.000000E-09 
        CGSO    9.027000E-09 
        CGDO    1.679000E-09 
        CGBO    0            
         TOX  100.000000E-09 
          XJ    0            
       UCRIT   10.000000E+03 
       DELTA    0            
         ETA    0            
      DIOMOD    1            
         VFB    0            
        LETA    0            
        WETA    0            
          U0    0            
        TEMP    0            
         VDD    5            
       XPART    0            


**** 03/18/22 19:51:00 ******* PSpice Lite (March 2016) ******* ID# 10813 ****

 ** Profile: "SCHEMATIC1-tst3_2"  [ D:\Practicas\E_General\Termometro_5-PSpiceFiles\SCHEMATIC1\tst3_2.sim ] 


 ****     Current Controlled Switch MODEL PARAMETERS


******************************************************************************




               X_U1A.x_lm358.sw2 
         RON    1            
        ROFF   10.000000E+06 
         ION    0            
        IOFF   -1.000000E-06 


               X_U1A.x_lm358.sw1 
         RON    1            
        ROFF   10.000000E+06 
         ION   -1.000000E-06 
        IOFF    0            


               X_U1A.x_lm358.sw3 
         RON    1            
        ROFF   10.000000E+06 
         ION   -1.000000E-06 
        IOFF    0            


               X_U1A.x_lm358.sw4 
         RON    1            
        ROFF   10.000000E+06 
         ION    0            
        IOFF   -1.000000E-06 


               X_U2B.x_lm358.sw2 
         RON    1            
        ROFF   10.000000E+06 
         ION    0            
        IOFF   -1.000000E-06 


               X_U2B.x_lm358.sw1 
         RON    1            
        ROFF   10.000000E+06 
         ION   -1.000000E-06 
        IOFF    0            


               X_U2B.x_lm358.sw3 
         RON    1            
        ROFF   10.000000E+06 
         ION   -1.000000E-06 
        IOFF    0            


               X_U2B.x_lm358.sw4 
         RON    1            
        ROFF   10.000000E+06 
         ION    0            
        IOFF   -1.000000E-06 



          JOB CONCLUDED

**** 03/18/22 19:51:00 ******* PSpice Lite (March 2016) ******* ID# 10813 ****

 ** Profile: "SCHEMATIC1-tst3_2"  [ D:\Practicas\E_General\Termometro_5-PSpiceFiles\SCHEMATIC1\tst3_2.sim ] 


 ****     JOB STATISTICS SUMMARY


******************************************************************************



  Total job time (using Solver 1)   =         .08
