
**** 03/19/22 20:04:03 ******* PSpice Lite (March 2016) ******* ID# 10813 ****

 ** Profile: "SCHEMATIC1-s"  [ D:\Practicas\E_General\p-PSpiceFiles\SCHEMATIC1\s.sim ] 


 ****     CIRCUIT DESCRIPTION


******************************************************************************




** Creating circuit file "s.cir" 
** WARNING: THIS AUTOMATICALLY GENERATED FILE MAY BE OVERWRITTEN BY SUBSEQUENT SIMULATIONS

*Libraries: 
* Profile Libraries :
* Local Libraries :
* From [PSPICE NETLIST] section of C:\SPB_DATA\cdssetup\OrCAD_PSpice\17.2.0\PSpice.ini file:
.lib "nomd.lib" 

*Analysis directives: 
.DC LIN TEMP -10 30 0.1 
.OPTIONS ADVCONV
.PROBE64 V(alias(*)) I(alias(*)) W(alias(*)) D(alias(*)) NOISE(alias(*)) 
.INC "..\SCHEMATIC1.net" 



**** INCLUDING SCHEMATIC1.net ****
* source P
V_V1         VC+ 0 5
D_D2         N03927 N03605 D1N4148 
R_R2         0 N03605  1.2k TC=0,0 
R_R3         0 N03605  1.2k TC=0,0 
R_R1         N03605 VC+  188.2k TC=0,0 
V_V3         N03989 N03605 0.797
X_U2B         N03999 N03779 VC+ VS- N03789 LM358
X_D1         0 N03605 LM385 
V_V2         0 VS- 5
R_R7         N03999 0  1k TC=0,0 
R_R5         N03989 N03999  1k TC=0,0 
R_R4         N03927 N03779  1k TC=0,0 
R_R6         N03779 N03789  1k TC=0,0 

**** RESUMING s.cir ****
.END

**** 03/19/22 20:04:03 ******* PSpice Lite (March 2016) ******* ID# 10813 ****

 ** Profile: "SCHEMATIC1-s"  [ D:\Practicas\E_General\p-PSpiceFiles\SCHEMATIC1\s.sim ] 


 ****     Diode MODEL PARAMETERS


******************************************************************************




               D1N4148         X_D1.DF         
          IS    2.682000E-09   39.120000E-15 
           N    1.836            .9983       
         ISR    1.565000E-09                 
         IKF     .04417                      
          BV  100                            
         IBV  100.000000E-06                 
          RS     .5664         12.18         
          TT   11.540000E-09                 
         CJO    4.000000E-12                 
          VJ     .5                          
           M     .3333                       


               X_U2B.x_lm358.dx 
          IS  800.000000E-18 
          RS    1            


               X_U2B.x_lm358.dy 
          IS  800.000000E-18 
          RS    1.000000E-03 
         CJO   10.000000E-12 


**** 03/19/22 20:04:03 ******* PSpice Lite (March 2016) ******* ID# 10813 ****

 ** Profile: "SCHEMATIC1-s"  [ D:\Practicas\E_General\p-PSpiceFiles\SCHEMATIC1\s.sim ] 


 ****     BJT MODEL PARAMETERS


******************************************************************************




               X_U2B.x_lm358.qx 
               PNP             
       LEVEL    1            
          IS  800.000000E-18 
          BF  166.7          
          NF    1            
          BR    1            
          NR    1            
         ISS    0            
          RE    0            
          RC    0            
         CJE    0            
         VJE     .75         
         CJC    0            
         VJC     .75         
         MJC     .33         
        XCJC    1            
         CJS    0            
         VJS     .75         
          KF    0            
          AF    1            
          CN    2.2          
           D     .52         


**** 03/19/22 20:04:03 ******* PSpice Lite (March 2016) ******* ID# 10813 ****

 ** Profile: "SCHEMATIC1-s"  [ D:\Practicas\E_General\p-PSpiceFiles\SCHEMATIC1\s.sim ] 


 ****     Current Controlled Switch MODEL PARAMETERS


******************************************************************************




               X_U2B.x_lm358.sw2 
         RON    1            
        ROFF   10.000000E+06 
         ION    0            
        IOFF   -1.000000E-06 


               X_U2B.x_lm358.sw1 
         RON    1            
        ROFF   10.000000E+06 
         ION   -1.000000E-06 
        IOFF    0            


               X_U2B.x_lm358.sw3 
         RON    1            
        ROFF   10.000000E+06 
         ION   -1.000000E-06 
        IOFF    0            


               X_U2B.x_lm358.sw4 
         RON    1            
        ROFF   10.000000E+06 
         ION    0            
        IOFF   -1.000000E-06 



          JOB CONCLUDED

**** 03/19/22 20:04:03 ******* PSpice Lite (March 2016) ******* ID# 10813 ****

 ** Profile: "SCHEMATIC1-s"  [ D:\Practicas\E_General\p-PSpiceFiles\SCHEMATIC1\s.sim ] 


 ****     JOB STATISTICS SUMMARY


******************************************************************************



  Total job time (using Solver 1)   =         .05
