
**** 03/18/22 20:50:33 ******* PSpice Lite (March 2016) ******* ID# 10813 ****

 ** Profile: "SCHEMATIC1-psd"  [ D:\Practicas\E_General\Termometro_Final-PSpiceFiles\SCHEMATIC1\psd.sim ] 


 ****     CIRCUIT DESCRIPTION


******************************************************************************




** Creating circuit file "psd.cir" 
** WARNING: THIS AUTOMATICALLY GENERATED FILE MAY BE OVERWRITTEN BY SUBSEQUENT SIMULATIONS

*Libraries: 
* Profile Libraries :
* Local Libraries :
* From [PSPICE NETLIST] section of C:\SPB_DATA\cdssetup\OrCAD_PSpice\17.2.0\PSpice.ini file:
.lib "nomd.lib" 

*Analysis directives: 
.DC LIN TEMP -70 30 0.1 
.OPTIONS ADVCONV
.PROBE64 V(alias(*)) I(alias(*)) W(alias(*)) D(alias(*)) NOISE(alias(*)) 
.INC "..\SCHEMATIC1.net" 



**** INCLUDING SCHEMATIC1.net ****
* source TERMOMETRO_FINAL
V_V2         VS- 0 5
R_R1         N05022 VC+  180K TC=0,0 
V_V1         VC+ 0 5
X_D1         0 N05026 LM385 
R_R2         N05026 N05022  8.2K TC=0,0 
D_D2         N05223 0 D1N4148 
D_D3         0 N05247 D1N4148 
V_V3         N05223 0 5
V_V4         N05247 0 5

**** RESUMING psd.cir ****
.END

**** 03/18/22 20:50:33 ******* PSpice Lite (March 2016) ******* ID# 10813 ****

 ** Profile: "SCHEMATIC1-psd"  [ D:\Practicas\E_General\Termometro_Final-PSpiceFiles\SCHEMATIC1\psd.sim ] 


 ****     Diode MODEL PARAMETERS


******************************************************************************




               D1N4148         X_D1.DF         
          IS    2.682000E-09   39.120000E-15 
           N    1.836            .9983       
         ISR    1.565000E-09                 
         IKF     .04417                      
          BV  100                            
         IBV  100.000000E-06                 
          RS     .5664         12.18         
          TT   11.540000E-09                 
         CJO    4.000000E-12                 
          VJ     .5                          
           M     .3333                       



          JOB CONCLUDED

**** 03/18/22 20:50:33 ******* PSpice Lite (March 2016) ******* ID# 10813 ****

 ** Profile: "SCHEMATIC1-psd"  [ D:\Practicas\E_General\Termometro_Final-PSpiceFiles\SCHEMATIC1\psd.sim ] 


 ****     JOB STATISTICS SUMMARY


******************************************************************************



  Total job time (using Solver 1)   =         .03
