
**** 03/18/22 20:45:34 ******* PSpice Lite (March 2016) ******* ID# 10813 ****

 ** Profile: "SCHEMATIC1-bpd"  [ D:\Practicas\E_General\Termometro_Final-PSpiceFiles\SCHEMATIC1\bpd.sim ] 


 ****     CIRCUIT DESCRIPTION


******************************************************************************




** Creating circuit file "bpd.cir" 
** WARNING: THIS AUTOMATICALLY GENERATED FILE MAY BE OVERWRITTEN BY SUBSEQUENT SIMULATIONS

*Libraries: 
* Profile Libraries :
* Local Libraries :
* From [PSPICE NETLIST] section of C:\SPB_DATA\cdssetup\OrCAD_PSpice\17.2.0\PSpice.ini file:
.lib "nomd.lib" 

*Analysis directives: 
.OPTIONS ADVCONV
.PROBE64 V(alias(*)) I(alias(*)) W(alias(*)) D(alias(*)) NOISE(alias(*)) 
.INC "..\SCHEMATIC1.net" 



**** INCLUDING SCHEMATIC1.net ****
* source TERMOMETRO_FINAL
V_V2         VS- 0 5
R_R1         N05022 VC+  180K TC=0,0 
V_V1         VC+ 0 5
X_D1         0 N05026 LM385 
R_R2         N05026 N05022  8.2K TC=0,0 
D_D2         N05223 N05235 D1N4148 
D_D3         N05259 N05247 D1N4148 
V_V3         N05223 N05235 5
V_V4         N05247 N05259 5

**** RESUMING bpd.cir ****
.END

ERROR(ORPSIM-15142): Node N05223 is floating

ERROR(ORPSIM-15142): Node N05235 is floating

ERROR(ORPSIM-15142): Node N05259 is floating

ERROR(ORPSIM-15142): Node N05247 is floating
