
**** 03/19/22 09:45:34 ******* PSpice Lite (March 2016) ******* ID# 10813 ****

 ** Profile: "SCHEMATIC1-p"  [ D:\Practicas\E_General\termometro_final-pspicefiles\schematic1\p.sim ] 


 ****     CIRCUIT DESCRIPTION


******************************************************************************




** Creating circuit file "p.cir" 
** WARNING: THIS AUTOMATICALLY GENERATED FILE MAY BE OVERWRITTEN BY SUBSEQUENT SIMULATIONS

*Libraries: 
* Profile Libraries :
* Local Libraries :
* From [PSPICE NETLIST] section of C:\SPB_DATA\cdssetup\OrCAD_PSpice\17.2.0\PSpice.ini file:
.lib "nomd.lib" 

*Analysis directives: 
.DC LIN PARAM n 10Meg 50Meg 1Meg 
.TEMP 30
.OPTIONS ADVCONV
.PROBE64 V(alias(*)) I(alias(*)) W(alias(*)) D(alias(*)) NOISE(alias(*)) 
.INC "..\SCHEMATIC1.net" 



**** INCLUDING SCHEMATIC1.net ****
* source TERMOMETRO_FINAL
V_V2         VS- 0 5
X_D1         0 N05787 LM385 
V_V1         VC+ 0 5
R_R1         N05719 VC+  180K TC=0,0 
R_R2         N05787 N05719  8.2K TC=0,0 
X_U1A         N05787 N06223 VC+ VS- N06217 LM358
D_D2         0 N06223 D1N4148 
R_R3         N06223 N06677  {n} TC=0,0 
Q_Q1         VC+ N06217 N06677 Q2N3904

**** RESUMING p.cir ****
.END

ERROR(ORPSIM-15167): Undefined parameter: n.
