
**** 03/18/22 09:21:38 ******* PSpice Lite (March 2016) ******* ID# 10813 ****

 ** Profile: "SCHEMATIC1-bandgap2"  [ D:\Practicas\E_General\termometro_0-PSpiceFiles\SCHEMATIC1\bandgap2.sim ] 


 ****     CIRCUIT DESCRIPTION


******************************************************************************




** Creating circuit file "bandgap2.cir" 
** WARNING: THIS AUTOMATICALLY GENERATED FILE MAY BE OVERWRITTEN BY SUBSEQUENT SIMULATIONS

*Libraries: 
* Profile Libraries :
* Local Libraries :
* From [PSPICE NETLIST] section of C:\SPB_DATA\cdssetup\OrCAD_PSpice\17.2.0\PSpice.ini file:
.lib "nomd.lib" 

*Analysis directives: 
.DC LIN PARAM n 10k 100k 0.1k 
.TEMP -70 30
.OPTIONS ADVCONV
.PROBE64 V(alias(*)) I(alias(*)) W(alias(*)) D(alias(*)) NOISE(alias(*)) 
.INC "..\SCHEMATIC1.net" 



**** INCLUDING SCHEMATIC1.net ****
* source TERMOMETRO_0
X_U1         N00280 0 AD1580/AD
R_R1         N00280 VCC  {n} TC=0,0 
V_V1         VCC 0 5
V_V2         VSS 0 5
V_V4         VSS 0 5
V_V3         VCC 0 5
.PARAM  n=1

**** RESUMING bandgap2.cir ****
.END

ERROR(ORPSIM-15143): Voltage source and/or inductor loop involving V_V4. You may break the loop by adding a series resistance
