
**** 03/18/22 18:57:27 ******* PSpice Lite (March 2016) ******* ID# 10813 ****

 ** Profile: "SCHEMATIC1-tst3_1"  [ D:\Practicas\E_General\Termometro_4-PSpiceFiles\SCHEMATIC1\tst3_1.sim ] 


 ****     CIRCUIT DESCRIPTION


******************************************************************************




** Creating circuit file "tst3_1.cir" 
** WARNING: THIS AUTOMATICALLY GENERATED FILE MAY BE OVERWRITTEN BY SUBSEQUENT SIMULATIONS

*Libraries: 
* Profile Libraries :
* Local Libraries :
* From [PSPICE NETLIST] section of C:\SPB_DATA\cdssetup\OrCAD_PSpice\17.2.0\PSpice.ini file:
.lib "nomd.lib" 

*Analysis directives: 
.DC LIN TEMP -10 30 0.1 
.OPTIONS ADVCONV
.PROBE64 V(alias(*)) I(alias(*)) W(alias(*)) D(alias(*)) NOISE(alias(*)) 
.INC "..\SCHEMATIC1.net" 



**** INCLUDING SCHEMATIC1.net ****
* source TERMOMETRO_4
X_D1         0 N00067 LM385 
R_R1         N00067 VCC  116564 TC=0,0 
X_U1A         N00067 N00238 VCC VSS N00231 LM358
D_D2         0 N00238 D1N4148 
R_R2         N00238 N00231  1k TC=0,0 
Q_Q1         N00349 N00335 N00342 Q2N3904
Q_Q2         0 N00342 N00335 Q2N3904
R_R3         N00335 N00067  1k TC=0,0 
R_R4         0 N00342  1.4M TC=0,0 
R_R5         N00067 N00931  1k TC=0,0 
X_U1B         N00231 N00931 VCC VSS N00984 LM358
V_V1         VCC 0 5
V_V2         0 VSS 5
V_V3         N00067 N00349 787.35mV

**** RESUMING tst3_1.cir ****
.END

**** 03/18/22 18:57:27 ******* PSpice Lite (March 2016) ******* ID# 10813 ****

 ** Profile: "SCHEMATIC1-tst3_1"  [ D:\Practicas\E_General\Termometro_4-PSpiceFiles\SCHEMATIC1\tst3_1.sim ] 


 ****     Diode MODEL PARAMETERS


******************************************************************************




               D1N4148         X_D1.DF         
          IS    2.682000E-09   39.120000E-15 
           N    1.836            .9983       
         ISR    1.565000E-09                 
         IKF     .04417                      
          BV  100                            
         IBV  100.000000E-06                 
          RS     .5664         12.18         
          TT   11.540000E-09                 
         CJO    4.000000E-12                 
          VJ     .5                          
           M     .3333                       


               X_U1A.x_lm358.dx 
          IS  800.000000E-18 
          RS    1            


               X_U1A.x_lm358.dy 
          IS  800.000000E-18 
          RS    1.000000E-03 
         CJO   10.000000E-12 


               X_U1B.x_lm358.dx 
          IS  800.000000E-18 
          RS    1            


               X_U1B.x_lm358.dy 
          IS  800.000000E-18 
          RS    1.000000E-03 
         CJO   10.000000E-12 


**** 03/18/22 18:57:27 ******* PSpice Lite (March 2016) ******* ID# 10813 ****

 ** Profile: "SCHEMATIC1-tst3_1"  [ D:\Practicas\E_General\Termometro_4-PSpiceFiles\SCHEMATIC1\tst3_1.sim ] 


 ****     BJT MODEL PARAMETERS


******************************************************************************




               Q2N3904         X_U1A.x_lm358.qx 
               NPN             PNP             
       LEVEL    1               1            
          IS    6.734000E-15  800.000000E-18 
          BF  416.4           166.7          
          NF    1               1            
         VAF   74.03                         
         IKF     .06678                      
         ISE    6.734000E-15                 
          NE    1.259                        
          BR     .7371          1            
          NR    1               1            
         ISS    0               0            
          RB   10                            
          RE    0               0            
          RC    1               0            
         CJE    4.493000E-12    0            
         VJE     .75             .75         
         MJE     .2593                       
         CJC    3.638000E-12    0            
         VJC     .75             .75         
         MJC     .3085           .33         
        XCJC    1               1            
         CJS    0               0            
         VJS     .75             .75         
          TF  301.200000E-12                 
         XTF    2                            
         VTF    4                            
         ITF     .4                          
          TR  239.500000E-09                 
         XTB    1.5                          
          KF    0               0            
          AF    1               1            
          CN    2.42            2.2          
           D     .87             .52         


               X_U1B.x_lm358.qx 
               PNP             
       LEVEL    1            
          IS  800.000000E-18 
          BF  166.7          
          NF    1            
          BR    1            
          NR    1            
         ISS    0            
          RE    0            
          RC    0            
         CJE    0            
         VJE     .75         
         CJC    0            
         VJC     .75         
         MJC     .33         
        XCJC    1            
         CJS    0            
         VJS     .75         
          KF    0            
          AF    1            
          CN    2.2          
           D     .52         


**** 03/18/22 18:57:27 ******* PSpice Lite (March 2016) ******* ID# 10813 ****

 ** Profile: "SCHEMATIC1-tst3_1"  [ D:\Practicas\E_General\Termometro_4-PSpiceFiles\SCHEMATIC1\tst3_1.sim ] 


 ****     Current Controlled Switch MODEL PARAMETERS


******************************************************************************




               X_U1A.x_lm358.sw2 
         RON    1            
        ROFF   10.000000E+06 
         ION    0            
        IOFF   -1.000000E-06 


               X_U1A.x_lm358.sw1 
         RON    1            
        ROFF   10.000000E+06 
         ION   -1.000000E-06 
        IOFF    0            


               X_U1A.x_lm358.sw3 
         RON    1            
        ROFF   10.000000E+06 
         ION   -1.000000E-06 
        IOFF    0            


               X_U1A.x_lm358.sw4 
         RON    1            
        ROFF   10.000000E+06 
         ION    0            
        IOFF   -1.000000E-06 


               X_U1B.x_lm358.sw2 
         RON    1            
        ROFF   10.000000E+06 
         ION    0            
        IOFF   -1.000000E-06 


               X_U1B.x_lm358.sw1 
         RON    1            
        ROFF   10.000000E+06 
         ION   -1.000000E-06 
        IOFF    0            


               X_U1B.x_lm358.sw3 
         RON    1            
        ROFF   10.000000E+06 
         ION   -1.000000E-06 
        IOFF    0            


               X_U1B.x_lm358.sw4 
         RON    1            
        ROFF   10.000000E+06 
         ION    0            
        IOFF   -1.000000E-06 



          JOB CONCLUDED

**** 03/18/22 18:57:27 ******* PSpice Lite (March 2016) ******* ID# 10813 ****

 ** Profile: "SCHEMATIC1-tst3_1"  [ D:\Practicas\E_General\Termometro_4-PSpiceFiles\SCHEMATIC1\tst3_1.sim ] 


 ****     JOB STATISTICS SUMMARY


******************************************************************************



  Total job time (using Solver 1)   =         .06
