
**** 03/19/22 17:41:15 ******* PSpice Lite (March 2016) ******* ID# 10813 ****

 ** Profile: "SCHEMATIC1-bpt32"  [ D:\Practicas\E_General\Termometro_Final-PSpiceFiles\SCHEMATIC1\bpt32.sim ] 


 ****     CIRCUIT DESCRIPTION


******************************************************************************




** Creating circuit file "bpt32.cir" 
** WARNING: THIS AUTOMATICALLY GENERATED FILE MAY BE OVERWRITTEN BY SUBSEQUENT SIMULATIONS

*Libraries: 
* Profile Libraries :
* Local Libraries :
* From [PSPICE NETLIST] section of C:\SPB_DATA\cdssetup\OrCAD_PSpice\17.2.0\PSpice.ini file:
.lib "nomd.lib" 

*Analysis directives: 
.DC LIN TEMP -10 30 0.1 
.OPTIONS ADVCONV
.PROBE64 V(alias(*)) I(alias(*)) W(alias(*)) D(alias(*)) NOISE(alias(*)) 
.INC "..\SCHEMATIC1.net" 



**** INCLUDING SCHEMATIC1.net ****
* source TERMOMETRO_FINAL
X_D1         0 N05787 LM385 
V_V1         VC+ 0 5
R_R1         N05719 VC+  180K TC=0,0 
R_R2         N05787 N05719  8.2K TC=0,0 
V_V2         0 VS- 5
X_U1B         N05787 N08000 VC+ VS- N07963 LM358
R_R4         0 N08000  1.2k TC=0,0 
R_R5         0 N08000  1.2k TC=0,0 
D_D4         N09157 N08000 D1N4148 
Q_Q1         VC+ N07963 N10831 Q2N3904
Q_Q2         VC+ N07963 N09157 Q2N3904
X_U3B         N09628 N09647 VS- VC+ N09382 LM358
R_R6         N10831 N09628  100 TC=0,0 
R_R7         N09157 N09647  100 TC=0,0 
V_V3         N10831 N08000 1.817
R_R8         N09628 N09382  100 TC=0,0 
R_R9         0 N09647  100 TC=0,0 

**** RESUMING bpt32.cir ****
.END

**** 03/19/22 17:41:15 ******* PSpice Lite (March 2016) ******* ID# 10813 ****

 ** Profile: "SCHEMATIC1-bpt32"  [ D:\Practicas\E_General\Termometro_Final-PSpiceFiles\SCHEMATIC1\bpt32.sim ] 


 ****     Diode MODEL PARAMETERS


******************************************************************************




               D1N4148         X_D1.DF         
          IS    2.682000E-09   39.120000E-15 
           N    1.836            .9983       
         ISR    1.565000E-09                 
         IKF     .04417                      
          BV  100                            
         IBV  100.000000E-06                 
          RS     .5664         12.18         
          TT   11.540000E-09                 
         CJO    4.000000E-12                 
          VJ     .5                          
           M     .3333                       


               X_U1B.x_lm358.dx 
          IS  800.000000E-18 
          RS    1            


               X_U1B.x_lm358.dy 
          IS  800.000000E-18 
          RS    1.000000E-03 
         CJO   10.000000E-12 


               X_U3B.x_lm358.dx 
          IS  800.000000E-18 
          RS    1            


               X_U3B.x_lm358.dy 
          IS  800.000000E-18 
          RS    1.000000E-03 
         CJO   10.000000E-12 


**** 03/19/22 17:41:15 ******* PSpice Lite (March 2016) ******* ID# 10813 ****

 ** Profile: "SCHEMATIC1-bpt32"  [ D:\Practicas\E_General\Termometro_Final-PSpiceFiles\SCHEMATIC1\bpt32.sim ] 


 ****     BJT MODEL PARAMETERS


******************************************************************************




               Q2N3904         X_U1B.x_lm358.qx 
               NPN             PNP             
       LEVEL    1               1            
          IS    6.734000E-15  800.000000E-18 
          BF  416.4           166.7          
          NF    1               1            
         VAF   74.03                         
         IKF     .06678                      
         ISE    6.734000E-15                 
          NE    1.259                        
          BR     .7371          1            
          NR    1               1            
         ISS    0               0            
          RB   10                            
          RE    0               0            
          RC    1               0            
         CJE    4.493000E-12    0            
         VJE     .75             .75         
         MJE     .2593                       
         CJC    3.638000E-12    0            
         VJC     .75             .75         
         MJC     .3085           .33         
        XCJC    1               1            
         CJS    0               0            
         VJS     .75             .75         
          TF  301.200000E-12                 
         XTF    2                            
         VTF    4                            
         ITF     .4                          
          TR  239.500000E-09                 
         XTB    1.5                          
          KF    0               0            
          AF    1               1            
          CN    2.42            2.2          
           D     .87             .52         


               X_U3B.x_lm358.qx 
               PNP             
       LEVEL    1            
          IS  800.000000E-18 
          BF  166.7          
          NF    1            
          BR    1            
          NR    1            
         ISS    0            
          RE    0            
          RC    0            
         CJE    0            
         VJE     .75         
         CJC    0            
         VJC     .75         
         MJC     .33         
        XCJC    1            
         CJS    0            
         VJS     .75         
          KF    0            
          AF    1            
          CN    2.2          
           D     .52         


**** 03/19/22 17:41:15 ******* PSpice Lite (March 2016) ******* ID# 10813 ****

 ** Profile: "SCHEMATIC1-bpt32"  [ D:\Practicas\E_General\Termometro_Final-PSpiceFiles\SCHEMATIC1\bpt32.sim ] 


 ****     Current Controlled Switch MODEL PARAMETERS


******************************************************************************




               X_U1B.x_lm358.sw2 
         RON    1            
        ROFF   10.000000E+06 
         ION    0            
        IOFF   -1.000000E-06 


               X_U1B.x_lm358.sw1 
         RON    1            
        ROFF   10.000000E+06 
         ION   -1.000000E-06 
        IOFF    0            


               X_U1B.x_lm358.sw3 
         RON    1            
        ROFF   10.000000E+06 
         ION   -1.000000E-06 
        IOFF    0            


               X_U1B.x_lm358.sw4 
         RON    1            
        ROFF   10.000000E+06 
         ION    0            
        IOFF   -1.000000E-06 


               X_U3B.x_lm358.sw2 
         RON    1            
        ROFF   10.000000E+06 
         ION    0            
        IOFF   -1.000000E-06 


               X_U3B.x_lm358.sw1 
         RON    1            
        ROFF   10.000000E+06 
         ION   -1.000000E-06 
        IOFF    0            


               X_U3B.x_lm358.sw3 
         RON    1            
        ROFF   10.000000E+06 
         ION   -1.000000E-06 
        IOFF    0            


               X_U3B.x_lm358.sw4 
         RON    1            
        ROFF   10.000000E+06 
         ION    0            
        IOFF   -1.000000E-06 



          JOB CONCLUDED

**** 03/19/22 17:41:15 ******* PSpice Lite (March 2016) ******* ID# 10813 ****

 ** Profile: "SCHEMATIC1-bpt32"  [ D:\Practicas\E_General\Termometro_Final-PSpiceFiles\SCHEMATIC1\bpt32.sim ] 


 ****     JOB STATISTICS SUMMARY


******************************************************************************



  Total job time (using Solver 1)   =         .06
