
**** 03/18/22 20:18:39 ******* PSpice Lite (March 2016) ******* ID# 10813 ****

 ** Profile: "SCHEMATIC1-pbg"  [ D:\Practicas\E_General\Termometro_Final-PSpiceFiles\SCHEMATIC1\pbg.sim ] 


 ****     CIRCUIT DESCRIPTION


******************************************************************************




** Creating circuit file "pbg.cir" 
** WARNING: THIS AUTOMATICALLY GENERATED FILE MAY BE OVERWRITTEN BY SUBSEQUENT SIMULATIONS

*Libraries: 
* Profile Libraries :
* Local Libraries :
* From [PSPICE NETLIST] section of C:\SPB_DATA\cdssetup\OrCAD_PSpice\17.2.0\PSpice.ini file:
.lib "nomd.lib" 

*Analysis directives: 
.TRAN  0 1000ns 0 
.STEP LIN PARAM n 100k 120k 0.1 
.TEMP -70 30
.OPTIONS ADVCONV
.PROBE64 V(alias(*)) I(alias(*)) W(alias(*)) D(alias(*)) NOISE(alias(*)) 
.INC "..\SCHEMATIC1.net" 



**** INCLUDING SCHEMATIC1.net ****
* source TERMOMETRO_FINAL
R_R1         N04410 VC+  {n} TC=0,0 
X_D1         0 N04410 LM385 
V_V2         VS- 0 5
V_V1         VC+ 0 5
.PARAM  n=1

**** RESUMING pbg.cir ****
.END

ERROR(ORPSIM-15049): Only one .TEMP value allowed with .STEP
